REMARK SMILES Clc1ccc(C(c2ccc(Cl)cc2)C(Cl)(Cl)Cl)cc1
REMARK SMILES IDX 6 1 14 2 15 3 16 4 17 5 5 6 4 7 18 8 3 9 19 10 2 11 1 12
REMARK SMILES IDX 7 13 8 14 13 15 9 16 12 17 10 18 11 19
REMARK H PARENT
REMARK Flexibility Score: inf
ROOT
ATOM      1  C   UNL     1      -0.014  -0.904   0.519  1.00  0.00     0.101 C 
ENDROOT
BRANCH   1   2
ATOM      2  C   UNL     1      -0.023  -2.370  -0.086  1.00  0.00     0.201 C 
ATOM      3  Cl  UNL     1      -0.214  -2.432  -1.868  1.00  0.00    -0.083 Cl
ATOM      4  Cl  UNL     1      -1.420  -3.297   0.608  1.00  0.00    -0.083 Cl
ATOM      5  Cl  UNL     1       1.458  -3.301   0.357  1.00  0.00    -0.083 Cl
ENDBRANCH   1   2
BRANCH   1   6
ATOM      6  C   UNL     1      -1.244  -0.097   0.274  1.00  0.00    -0.036 A 
ATOM      7  C   UNL     1      -1.338   0.702  -0.865  1.00  0.00     0.006 A 
ATOM      8  C   UNL     1      -2.300  -0.140   1.185  1.00  0.00     0.006 A 
ATOM      9  C   UNL     1      -2.488   1.458  -1.094  1.00  0.00     0.021 A 
ATOM     10  C   UNL     1      -3.450   0.615   0.956  1.00  0.00     0.021 A 
ATOM     11  C   UNL     1      -3.544   1.414  -0.183  1.00  0.00     0.041 A 
ATOM     12  Cl  UNL     1      -4.963   2.347  -0.465  1.00  0.00    -0.084 Cl
ENDBRANCH   1   6
BRANCH   1  13
ATOM     13  C   UNL     1       1.288  -0.087   0.323  1.00  0.00    -0.036 A 
ATOM     14  C   UNL     1       1.611   0.840   1.274  1.00  0.00     0.006 A 
ATOM     15  C   UNL     1       2.039  -0.339  -0.791  1.00  0.00     0.006 A 
ATOM     16  C   UNL     1       2.782   1.576   1.096  1.00  0.00     0.021 A 
ATOM     17  C   UNL     1       3.210   0.398  -0.969  1.00  0.00     0.021 A 
ATOM     18  C   UNL     1       3.582   1.355  -0.025  1.00  0.00     0.041 A 
ATOM     19  Cl  UNL     1       5.027   2.264  -0.245  1.00  0.00    -0.084 Cl
ENDBRANCH   1  13
TORSDOF 3
