MODEL 1
REMARK VINA RESULT:    -8.079      0.000      0.000
REMARK INTER + INTRA:         -12.530
REMARK INTER:                 -10.465
REMARK INTRA:                  -2.065
REMARK CONF_INDEPENDENT:        2.386
REMARK UNBOUND:                -2.065
REMARK SMILES CC1(C)C(C=C(Br)Br)C1C(=O)OC(C#N)c1cccc(Oc2ccccc2)c1
REMARK SMILES IDX 13 1 12 2 10 3 11 4 9 5 4 6 2 7 1 8 3 9 5 10 7 11 6 12 8 13
REMARK SMILES IDX 16 14 28 15 17 16 20 17 18 18 19 19 21 20 22 21 23 22 27 23
REMARK SMILES IDX 24 24 26 25 25 26 14 27 15 28
REMARK H PARENT
REMARK Flexibility Score: inf
ROOT
ATOM      1  C   UNL     1      -2.411   3.139   1.122  1.00  0.00     0.309 C
ENDROOT
BRANCH   1   2
ATOM      2  O   UNL     1      -1.043   2.930   0.745  1.00  0.00    -0.442 OA
BRANCH   2   3
ATOM      3  C   UNL     1      -0.430   1.875   1.345  1.00  0.00     0.311 C
ATOM      4  O   UNL     1      -0.130   1.770   2.526  1.00  0.00    -0.252 OA
BRANCH   3   5
ATOM      5  C   UNL     1      -0.138   0.792   0.370  1.00  0.00     0.113 C
ATOM      6  C   UNL     1       1.292   0.457   0.089  1.00  0.00     0.035 C
ATOM      7  C   UNL     1       0.455   1.125  -0.962  1.00  0.00    -0.014 C
ATOM      8  C   UNL     1       0.774   2.545  -1.290  1.00  0.00     0.012 C
ATOM      9  C   UNL     1      -0.028   0.337  -2.134  1.00  0.00     0.012 C
BRANCH   6  10
ATOM     10  C   UNL     1       2.327   1.200   0.791  1.00  0.00     0.001 C
ATOM     11  Br  UNL     1       3.983   1.499  -1.500  1.00  0.00    -0.043 Br
ATOM     12  C   UNL     1       3.475   1.690   0.291  1.00  0.00     0.057 C
ATOM     13  Br  UNL     1       4.682   2.626   1.379  1.00  0.00    -0.043 Br
ENDBRANCH   6  10
ENDBRANCH   3   5
ENDBRANCH   2   3
ENDBRANCH   1   2
BRANCH   1  14
ATOM     14  C   UNL     1      -3.252   3.320  -0.095  1.00  0.00     0.011 A
ATOM     15  C   UNL     1      -4.014   2.257  -0.581  1.00  0.00     0.055 A
ATOM     16  C   UNL     1      -3.278   4.553  -0.748  1.00  0.00     0.009 A
ATOM     17  C   UNL     1      -4.801   2.427  -1.720  1.00  0.00     0.127 A
ATOM     18  C   UNL     1      -4.066   4.722  -1.887  1.00  0.00     0.004 A
ATOM     19  C   UNL     1      -4.827   3.659  -2.373  1.00  0.00     0.047 A
BRANCH  17  20
ATOM     20  O   UNL     1      -5.545   1.390  -2.195  1.00  0.00    -0.457 OA
BRANCH  20  21
ATOM     21  C   UNL     1      -4.912   0.466  -3.011  1.00  0.00     0.127 A
ATOM     22  C   UNL     1      -5.453   0.181  -4.251  1.00  0.00     0.047 A
ATOM     23  C   UNL     1      -3.756  -0.148  -2.563  1.00  0.00     0.047 A
ATOM     24  C   UNL     1      -4.817  -0.750  -5.073  1.00  0.00     0.004 A
ATOM     25  C   UNL     1      -3.120  -1.078  -3.384  1.00  0.00     0.004 A
ATOM     26  C   UNL     1      -3.649  -1.379  -4.639  1.00  0.00     0.000 A
ENDBRANCH  20  21
ENDBRANCH  17  20
ENDBRANCH   1  14
BRANCH   1  27
ATOM     27  C   UNL     1      -2.864   2.013   1.963  1.00  0.00     0.113 C
ATOM     28  N   UNL     1      -3.209   1.124   2.625  1.00  0.00    -0.194 NA
ENDBRANCH   1  27
TORSDOF 8
ENDMDL
MODEL 2
REMARK VINA RESULT:    -8.028      3.982      6.844
REMARK INTER + INTRA:         -12.787
REMARK INTER:                 -10.415
REMARK INTRA:                  -2.372
REMARK CONF_INDEPENDENT:        2.386
REMARK UNBOUND:                -2.372
REMARK SMILES CC1(C)C(C=C(Br)Br)C1C(=O)OC(C#N)c1cccc(Oc2ccccc2)c1
REMARK SMILES IDX 13 1 12 2 10 3 11 4 9 5 4 6 2 7 1 8 3 9 5 10 7 11 6 12 8 13
REMARK SMILES IDX 16 14 28 15 17 16 20 17 18 18 19 19 21 20 22 21 23 22 27 23
REMARK SMILES IDX 24 24 26 25 25 26 14 27 15 28
REMARK H PARENT
REMARK Flexibility Score: inf
ROOT
ATOM      1  C   UNL     1       2.830   2.987  -2.659  1.00  0.00     0.309 C
ENDROOT
BRANCH   1   2
ATOM      2  O   UNL     1       1.501   3.180  -3.163  1.00  0.00    -0.442 OA
BRANCH   2   3
ATOM      3  C   UNL     1       0.823   4.230  -2.626  1.00  0.00     0.311 C
ATOM      4  O   UNL     1       0.886   4.636  -1.474  1.00  0.00    -0.252 OA
BRANCH   3   5
ATOM      5  C   UNL     1      -0.058   4.877  -3.633  1.00  0.00     0.113 C
ATOM      6  C   UNL     1       0.581   5.574  -4.791  1.00  0.00     0.035 C
ATOM      7  C   UNL     1      -0.117   6.368  -3.726  1.00  0.00    -0.014 C
ATOM      8  C   UNL     1       0.734   7.195  -2.821  1.00  0.00     0.012 C
ATOM      9  C   UNL     1      -1.450   6.977  -4.010  1.00  0.00     0.012 C
BRANCH   6  10
ATOM     10  C   UNL     1       2.033   5.576  -4.881  1.00  0.00     0.001 C
ATOM     11  Br  UNL     1       2.101   4.369  -7.454  1.00  0.00    -0.043 Br
ATOM     12  C   UNL     1       2.798   5.125  -5.890  1.00  0.00     0.057 C
ATOM     13  Br  UNL     1       4.669   5.223  -5.804  1.00  0.00    -0.043 Br
ENDBRANCH   6  10
ENDBRANCH   3   5
ENDBRANCH   2   3
ENDBRANCH   1   2
BRANCH   1  14
ATOM     14  C   UNL     1       2.786   2.183  -1.405  1.00  0.00     0.011 A
ATOM     15  C   UNL     1       1.571   1.672  -0.946  1.00  0.00     0.055 A
ATOM     16  C   UNL     1       3.959   1.940  -0.691  1.00  0.00     0.009 A
ATOM     17  C   UNL     1       1.531   0.919   0.227  1.00  0.00     0.127 A
ATOM     18  C   UNL     1       3.918   1.188   0.483  1.00  0.00     0.004 A
ATOM     19  C   UNL     1       2.704   0.678   0.943  1.00  0.00     0.047 A
BRANCH  17  20
ATOM     20  O   UNL     1       0.346   0.421   0.677  1.00  0.00    -0.457 OA
BRANCH  20  21
ATOM     21  C   UNL     1      -0.749   1.269   0.680  1.00  0.00     0.127 A
ATOM     22  C   UNL     1      -1.143   1.855   1.869  1.00  0.00     0.047 A
ATOM     23  C   UNL     1      -1.420   1.508  -0.506  1.00  0.00     0.047 A
ATOM     24  C   UNL     1      -2.246   2.710   1.873  1.00  0.00     0.004 A
ATOM     25  C   UNL     1      -2.523   2.361  -0.502  1.00  0.00     0.004 A
ATOM     26  C   UNL     1      -2.936   2.964   0.687  1.00  0.00     0.000 A
ENDBRANCH  20  21
ENDBRANCH  17  20
ENDBRANCH   1  14
BRANCH   1  27
ATOM     27  C   UNL     1       3.664   2.361  -3.706  1.00  0.00     0.113 C
ATOM     28  N   UNL     1       4.328   1.870  -4.521  1.00  0.00    -0.194 NA
ENDBRANCH   1  27
TORSDOF 8
ENDMDL
MODEL 3
REMARK VINA RESULT:    -7.956      3.950      6.230
REMARK INTER + INTRA:         -12.721
REMARK INTER:                 -10.342
REMARK INTRA:                  -2.379
REMARK CONF_INDEPENDENT:        2.386
REMARK UNBOUND:                -2.379
REMARK SMILES CC1(C)C(C=C(Br)Br)C1C(=O)OC(C#N)c1cccc(Oc2ccccc2)c1
REMARK SMILES IDX 13 1 12 2 10 3 11 4 9 5 4 6 2 7 1 8 3 9 5 10 7 11 6 12 8 13
REMARK SMILES IDX 16 14 28 15 17 16 20 17 18 18 19 19 21 20 22 21 23 22 27 23
REMARK SMILES IDX 24 24 26 25 25 26 14 27 15 28
REMARK H PARENT
REMARK Flexibility Score: inf
ROOT
ATOM      1  C   UNL     1       2.621   3.103  -2.723  1.00  0.00     0.309 C
ENDROOT
BRANCH   1   2
ATOM      2  O   UNL     1       1.398   3.529  -3.338  1.00  0.00    -0.442 OA
BRANCH   2   3
ATOM      3  C   UNL     1       0.716   4.496  -2.668  1.00  0.00     0.311 C
ATOM      4  O   UNL     1       0.788   4.756  -1.475  1.00  0.00    -0.252 OA
BRANCH   3   5
ATOM      5  C   UNL     1      -0.183   5.254  -3.577  1.00  0.00     0.113 C
ATOM      6  C   UNL     1       0.430   6.011  -4.711  1.00  0.00     0.035 C
ATOM      7  C   UNL     1      -0.180   6.749  -3.556  1.00  0.00    -0.014 C
ATOM      8  C   UNL     1       0.750   7.468  -2.636  1.00  0.00     0.012 C
ATOM      9  C   UNL     1      -1.496   7.431  -3.726  1.00  0.00     0.012 C
BRANCH   6  10
ATOM     10  C   UNL     1       1.875   5.961  -4.875  1.00  0.00     0.001 C
ATOM     11  Br  UNL     1       1.778   4.423  -7.264  1.00  0.00    -0.043 Br
ATOM     12  C   UNL     1       2.575   5.359  -5.852  1.00  0.00     0.057 C
ATOM     13  Br  UNL     1       4.449   5.416  -5.877  1.00  0.00    -0.043 Br
ENDBRANCH   6  10
ENDBRANCH   3   5
ENDBRANCH   2   3
ENDBRANCH   1   2
BRANCH   1  14
ATOM     14  C   UNL     1       2.324   2.250  -1.538  1.00  0.00     0.011 A
ATOM     15  C   UNL     1       1.128   1.533  -1.475  1.00  0.00     0.055 A
ATOM     16  C   UNL     1       3.243   2.165  -0.492  1.00  0.00     0.009 A
ATOM     17  C   UNL     1       0.851   0.735  -0.367  1.00  0.00     0.127 A
ATOM     18  C   UNL     1       2.965   1.366   0.618  1.00  0.00     0.004 A
ATOM     19  C   UNL     1       1.769   0.651   0.680  1.00  0.00     0.047 A
BRANCH  17  20
ATOM     20  O   UNL     1      -0.316   0.036  -0.304  1.00  0.00    -0.457 OA
BRANCH  20  21
ATOM     21  C   UNL     1      -1.004  -0.173  -1.488  1.00  0.00     0.127 A
ATOM     22  C   UNL     1      -1.968   0.740  -1.877  1.00  0.00     0.047 A
ATOM     23  C   UNL     1      -0.710  -1.289  -2.251  1.00  0.00     0.047 A
ATOM     24  C   UNL     1      -2.662   0.530  -3.069  1.00  0.00     0.004 A
ATOM     25  C   UNL     1      -1.404  -1.499  -3.442  1.00  0.00     0.004 A
ATOM     26  C   UNL     1      -2.379  -0.590  -3.852  1.00  0.00     0.000 A
ENDBRANCH  20  21
ENDBRANCH  17  20
ENDBRANCH   1  14
BRANCH   1  27
ATOM     27  C   UNL     1       3.458   2.412  -3.725  1.00  0.00     0.113 C
ATOM     28  N   UNL     1       4.119   1.880  -4.517  1.00  0.00    -0.194 NA
ENDBRANCH   1  27
TORSDOF 8
ENDMDL
MODEL 4
REMARK VINA RESULT:    -7.874      2.463      6.583
REMARK INTER + INTRA:         -12.946
REMARK INTER:                 -10.260
REMARK INTRA:                  -2.686
REMARK CONF_INDEPENDENT:        2.386
REMARK UNBOUND:                -2.686
REMARK SMILES CC1(C)C(C=C(Br)Br)C1C(=O)OC(C#N)c1cccc(Oc2ccccc2)c1
REMARK SMILES IDX 13 1 12 2 10 3 11 4 9 5 4 6 2 7 1 8 3 9 5 10 7 11 6 12 8 13
REMARK SMILES IDX 16 14 28 15 17 16 20 17 18 18 19 19 21 20 22 21 23 22 27 23
REMARK SMILES IDX 24 24 26 25 25 26 14 27 15 28
REMARK H PARENT
REMARK Flexibility Score: inf
ROOT
ATOM      1  C   UNL     1      -3.737   2.603  -1.097  1.00  0.00     0.309 C
ENDROOT
BRANCH   1   2
ATOM      2  O   UNL     1      -3.917   1.519  -2.019  1.00  0.00    -0.442 OA
BRANCH   2   3
ATOM      3  C   UNL     1      -5.076   1.547  -2.729  1.00  0.00     0.311 C
ATOM      4  O   UNL     1      -5.852   2.486  -2.837  1.00  0.00    -0.252 OA
BRANCH   3   5
ATOM      5  C   UNL     1      -5.330   0.247  -3.404  1.00  0.00     0.113 C
ATOM      6  C   UNL     1      -4.229  -0.357  -4.215  1.00  0.00     0.035 C
ATOM      7  C   UNL     1      -5.452   0.188  -4.893  1.00  0.00    -0.014 C
ATOM      8  C   UNL     1      -5.290   1.438  -5.693  1.00  0.00     0.012 C
ATOM      9  C   UNL     1      -6.468  -0.750  -5.453  1.00  0.00     0.012 C
BRANCH   6  10
ATOM     10  C   UNL     1      -2.961   0.351  -4.297  1.00  0.00     0.001 C
ATOM     11  Br  UNL     1      -1.561  -1.500  -2.655  1.00  0.00    -0.043 Br
ATOM     12  C   UNL     1      -1.791   0.020  -3.724  1.00  0.00     0.057 C
ATOM     13  Br  UNL     1      -0.263   1.081  -3.959  1.00  0.00    -0.043 Br
ENDBRANCH   6  10
ENDBRANCH   3   5
ENDBRANCH   2   3
ENDBRANCH   1   2
BRANCH   1  14
ATOM     14  C   UNL     1      -2.711   2.239  -0.079  1.00  0.00     0.011 A
ATOM     15  C   UNL     1      -1.624   1.440  -0.438  1.00  0.00     0.055 A
ATOM     16  C   UNL     1      -2.836   2.697   1.232  1.00  0.00     0.009 A
ATOM     17  C   UNL     1      -0.664   1.101   0.515  1.00  0.00     0.127 A
ATOM     18  C   UNL     1      -1.876   2.357   2.185  1.00  0.00     0.004 A
ATOM     19  C   UNL     1      -0.790   1.558   1.827  1.00  0.00     0.047 A
BRANCH  17  20
ATOM     20  O   UNL     1       0.396   0.321   0.166  1.00  0.00    -0.457 OA
BRANCH  20  21
ATOM     21  C   UNL     1       1.644   0.919   0.111  1.00  0.00     0.127 A
ATOM     22  C   UNL     1       1.993   1.646  -1.012  1.00  0.00     0.047 A
ATOM     23  C   UNL     1       2.509   0.774   1.181  1.00  0.00     0.047 A
ATOM     24  C   UNL     1       3.251   2.249  -1.068  1.00  0.00     0.004 A
ATOM     25  C   UNL     1       3.766   1.376   1.125  1.00  0.00     0.004 A
ATOM     26  C   UNL     1       4.137   2.115   0.001  1.00  0.00     0.000 A
ENDBRANCH  20  21
ENDBRANCH  17  20
ENDBRANCH   1  14
BRANCH   1  27
ATOM     27  C   UNL     1      -3.386   3.828  -1.844  1.00  0.00     0.113 C
ATOM     28  N   UNL     1      -3.117   4.786  -2.440  1.00  0.00    -0.194 NA
ENDBRANCH   1  27
TORSDOF 8
ENDMDL
MODEL 5
REMARK VINA RESULT:    -7.670      1.791      2.489
REMARK INTER + INTRA:         -13.294
REMARK INTER:                 -10.057
REMARK INTRA:                  -3.238
REMARK CONF_INDEPENDENT:        2.386
REMARK UNBOUND:                -3.238
REMARK SMILES CC1(C)C(C=C(Br)Br)C1C(=O)OC(C#N)c1cccc(Oc2ccccc2)c1
REMARK SMILES IDX 13 1 12 2 10 3 11 4 9 5 4 6 2 7 1 8 3 9 5 10 7 11 6 12 8 13
REMARK SMILES IDX 16 14 28 15 17 16 20 17 18 18 19 19 21 20 22 21 23 22 27 23
REMARK SMILES IDX 24 24 26 25 25 26 14 27 15 28
REMARK H PARENT
REMARK Flexibility Score: inf
ROOT
ATOM      1  C   UNL     1      -1.982   3.186   0.666  1.00  0.00     0.309 C
ENDROOT
BRANCH   1   2
ATOM      2  O   UNL     1      -0.698   2.896   0.097  1.00  0.00    -0.442 OA
BRANCH   2   3
ATOM      3  C   UNL     1      -0.286   3.752  -0.877  1.00  0.00     0.311 C
ATOM      4  O   UNL     1      -0.043   4.944  -0.755  1.00  0.00    -0.252 OA
BRANCH   3   5
ATOM      5  C   UNL     1      -0.152   3.060  -2.185  1.00  0.00     0.113 C
ATOM      6  C   UNL     1       1.027   2.166  -2.397  1.00  0.00     0.035 C
ATOM      7  C   UNL     1       0.924   3.467  -3.139  1.00  0.00    -0.014 C
ATOM      8  C   UNL     1       1.876   4.550  -2.754  1.00  0.00     0.012 C
ATOM      9  C   UNL     1       0.579   3.465  -4.591  1.00  0.00     0.012 C
BRANCH   6  10
ATOM     10  C   UNL     1       1.981   2.010  -1.310  1.00  0.00     0.001 C
ATOM     11  Br  UNL     1       0.497  -0.031  -0.000  1.00  0.00    -0.043 Br
ATOM     12  C   UNL     1       1.911   1.167  -0.265  1.00  0.00     0.057 C
ATOM     13  Br  UNL     1       3.261   1.125   1.036  1.00  0.00    -0.043 Br
ENDBRANCH   6  10
ENDBRANCH   3   5
ENDBRANCH   2   3
ENDBRANCH   1   2
BRANCH   1  14
ATOM     14  C   UNL     1      -3.029   3.148  -0.395  1.00  0.00     0.011 A
ATOM     15  C   UNL     1      -3.058   2.094  -1.309  1.00  0.00     0.055 A
ATOM     16  C   UNL     1      -3.980   4.165  -0.473  1.00  0.00     0.009 A
ATOM     17  C   UNL     1      -4.038   2.058  -2.300  1.00  0.00     0.127 A
ATOM     18  C   UNL     1      -4.959   4.128  -1.466  1.00  0.00     0.004 A
ATOM     19  C   UNL     1      -4.988   3.075  -2.380  1.00  0.00     0.047 A
BRANCH  17  20
ATOM     20  O   UNL     1      -4.066   1.030  -3.193  1.00  0.00    -0.457 OA
BRANCH  20  21
ATOM     21  C   UNL     1      -2.959   0.200  -3.254  1.00  0.00     0.127 A
ATOM     22  C   UNL     1      -1.837   0.623  -3.941  1.00  0.00     0.047 A
ATOM     23  C   UNL     1      -3.006  -1.032  -2.625  1.00  0.00     0.047 A
ATOM     24  C   UNL     1      -0.721  -0.214  -4.003  1.00  0.00     0.004 A
ATOM     25  C   UNL     1      -1.892  -1.868  -2.687  1.00  0.00     0.004 A
ATOM     26  C   UNL     1      -0.749  -1.459  -3.375  1.00  0.00     0.000 A
ENDBRANCH  20  21
ENDBRANCH  17  20
ENDBRANCH   1  14
BRANCH   1  27
ATOM     27  C   UNL     1      -2.254   2.240   1.767  1.00  0.00     0.113 C
ATOM     28  N   UNL     1      -2.478   1.496   2.628  1.00  0.00    -0.194 NA
ENDBRANCH   1  27
TORSDOF 8
ENDMDL
MODEL 6
REMARK VINA RESULT:    -7.482      3.485      6.091
REMARK INTER + INTRA:         -12.815
REMARK INTER:                  -9.869
REMARK INTRA:                  -2.946
REMARK CONF_INDEPENDENT:        2.386
REMARK UNBOUND:                -2.946
REMARK SMILES CC1(C)C(C=C(Br)Br)C1C(=O)OC(C#N)c1cccc(Oc2ccccc2)c1
REMARK SMILES IDX 13 1 12 2 10 3 11 4 9 5 4 6 2 7 1 8 3 9 5 10 7 11 6 12 8 13
REMARK SMILES IDX 16 14 28 15 17 16 20 17 18 18 19 19 21 20 22 21 23 22 27 23
REMARK SMILES IDX 24 24 26 25 25 26 14 27 15 28
REMARK H PARENT
REMARK Flexibility Score: inf
ROOT
ATOM      1  C   UNL     1      -1.140   4.617  -1.150  1.00  0.00     0.309 C
ENDROOT
BRANCH   1   2
ATOM      2  O   UNL     1       0.145   5.253  -1.123  1.00  0.00    -0.442 OA
BRANCH   2   3
ATOM      3  C   UNL     1       1.102   4.662  -1.888  1.00  0.00     0.311 C
ATOM      4  O   UNL     1       2.126   4.120  -1.499  1.00  0.00    -0.252 OA
BRANCH   3   5
ATOM      5  C   UNL     1       0.766   4.744  -3.333  1.00  0.00     0.113 C
ATOM      6  C   UNL     1       0.267   3.512  -4.017  1.00  0.00     0.035 C
ATOM      7  C   UNL     1       1.628   4.054  -4.342  1.00  0.00    -0.014 C
ATOM      8  C   UNL     1       2.807   3.263  -3.882  1.00  0.00     0.012 C
ATOM      9  C   UNL     1       1.853   4.760  -5.637  1.00  0.00     0.012 C
BRANCH   6  10
ATOM     10  C   UNL     1       0.125   2.295  -3.231  1.00  0.00     0.001 C
ATOM     11  Br  UNL     1      -1.966   1.232  -4.838  1.00  0.00    -0.043 Br
ATOM     12  C   UNL     1      -0.730   1.278  -3.432  1.00  0.00     0.057 C
ATOM     13  Br  UNL     1      -0.749  -0.210  -2.291  1.00  0.00    -0.043 Br
ENDBRANCH   6  10
ENDBRANCH   3   5
ENDBRANCH   2   3
ENDBRANCH   1   2
BRANCH   1  14
ATOM     14  C   UNL     1      -1.200   3.546  -0.115  1.00  0.00     0.011 A
ATOM     15  C   UNL     1      -0.162   2.620  -0.009  1.00  0.00     0.055 A
ATOM     16  C   UNL     1      -2.293   3.472   0.748  1.00  0.00     0.009 A
ATOM     17  C   UNL     1      -0.219   1.619   0.960  1.00  0.00     0.127 A
ATOM     18  C   UNL     1      -2.349   2.469   1.717  1.00  0.00     0.004 A
ATOM     19  C   UNL     1      -1.312   1.543   1.823  1.00  0.00     0.047 A
BRANCH  17  20
ATOM     20  O   UNL     1       0.793   0.713   1.064  1.00  0.00    -0.457 OA
BRANCH  20  21
ATOM     21  C   UNL     1       2.050   1.101   0.630  1.00  0.00     0.127 A
ATOM     22  C   UNL     1       2.321   1.111  -0.726  1.00  0.00     0.047 A
ATOM     23  C   UNL     1       3.002   1.468   1.564  1.00  0.00     0.047 A
ATOM     24  C   UNL     1       3.587   1.501  -1.164  1.00  0.00     0.004 A
ATOM     25  C   UNL     1       4.268   1.857   1.127  1.00  0.00     0.004 A
ATOM     26  C   UNL     1       4.561   1.875  -0.237  1.00  0.00     0.000 A
ENDBRANCH  20  21
ENDBRANCH  17  20
ENDBRANCH   1  14
BRANCH   1  27
ATOM     27  C   UNL     1      -2.194   5.637  -0.974  1.00  0.00     0.113 C
ATOM     28  N   UNL     1      -3.027   6.435  -0.845  1.00  0.00    -0.194 NA
ENDBRANCH   1  27
TORSDOF 8
ENDMDL
MODEL 7
REMARK VINA RESULT:    -7.241      4.160      7.166
REMARK INTER + INTRA:         -12.528
REMARK INTER:                  -9.627
REMARK INTRA:                  -2.901
REMARK CONF_INDEPENDENT:        2.386
REMARK UNBOUND:                -2.901
REMARK SMILES CC1(C)C(C=C(Br)Br)C1C(=O)OC(C#N)c1cccc(Oc2ccccc2)c1
REMARK SMILES IDX 13 1 12 2 10 3 11 4 9 5 4 6 2 7 1 8 3 9 5 10 7 11 6 12 8 13
REMARK SMILES IDX 16 14 28 15 17 16 20 17 18 18 19 19 21 20 22 21 23 22 27 23
REMARK SMILES IDX 24 24 26 25 25 26 14 27 15 28
REMARK H PARENT
REMARK Flexibility Score: inf
ROOT
ATOM      1  C   UNL     1      -0.506   1.169  -5.233  1.00  0.00     0.309 C
ENDROOT
BRANCH   1   2
ATOM      2  O   UNL     1       0.420   2.262  -5.306  1.00  0.00    -0.442 OA
BRANCH   2   3
ATOM      3  C   UNL     1       1.617   1.972  -5.883  1.00  0.00     0.311 C
ATOM      4  O   UNL     1       1.808   1.571  -7.023  1.00  0.00    -0.252 OA
BRANCH   3   5
ATOM      5  C   UNL     1       2.743   2.202  -4.941  1.00  0.00     0.113 C
ATOM      6  C   UNL     1       2.869   3.548  -4.301  1.00  0.00     0.035 C
ATOM      7  C   UNL     1       3.870   3.106  -5.328  1.00  0.00    -0.014 C
ATOM      8  C   UNL     1       3.838   3.793  -6.653  1.00  0.00     0.012 C
ATOM      9  C   UNL     1       5.240   2.701  -4.899  1.00  0.00     0.012 C
BRANCH   6  10
ATOM     10  C   UNL     1       1.877   4.563  -4.624  1.00  0.00     0.001 C
ATOM     11  Br  UNL     1       1.065   4.952  -1.928  1.00  0.00    -0.043 Br
ATOM     12  C   UNL     1       1.068   5.225  -3.780  1.00  0.00     0.057 C
ATOM     13  Br  UNL     1      -0.148   6.506  -4.410  1.00  0.00    -0.043 Br
ENDBRANCH   6  10
ENDBRANCH   3   5
ENDBRANCH   2   3
ENDBRANCH   1   2
BRANCH   1  14
ATOM     14  C   UNL     1      -0.468   0.560  -3.874  1.00  0.00     0.011 A
ATOM     15  C   UNL     1      -0.042   1.316  -2.781  1.00  0.00     0.055 A
ATOM     16  C   UNL     1      -0.860  -0.767  -3.693  1.00  0.00     0.009 A
ATOM     17  C   UNL     1      -0.008   0.746  -1.509  1.00  0.00     0.127 A
ATOM     18  C   UNL     1      -0.824  -1.337  -2.420  1.00  0.00     0.004 A
ATOM     19  C   UNL     1      -0.398  -0.581  -1.329  1.00  0.00     0.047 A
BRANCH  17  20
ATOM     20  O   UNL     1       0.408   1.483  -0.443  1.00  0.00    -0.457 OA
BRANCH  20  21
ATOM     21  C   UNL     1       1.757   1.457  -0.129  1.00  0.00     0.127 A
ATOM     22  C   UNL     1       2.150   1.000   1.115  1.00  0.00     0.047 A
ATOM     23  C   UNL     1       2.676   1.887  -1.070  1.00  0.00     0.047 A
ATOM     24  C   UNL     1       3.509   0.974   1.432  1.00  0.00     0.004 A
ATOM     25  C   UNL     1       4.034   1.861  -0.753  1.00  0.00     0.004 A
ATOM     26  C   UNL     1       4.451   1.404   0.497  1.00  0.00     0.000 A
ENDBRANCH  20  21
ENDBRANCH  17  20
ENDBRANCH   1  14
BRANCH   1  27
ATOM     27  C   UNL     1      -1.853   1.645  -5.606  1.00  0.00     0.113 C
ATOM     28  N   UNL     1      -2.916   2.014  -5.889  1.00  0.00    -0.194 NA
ENDBRANCH   1  27
TORSDOF 8
ENDMDL
MODEL 8
REMARK VINA RESULT:    -7.017      3.507      5.762
REMARK INTER + INTRA:         -12.625
REMARK INTER:                  -9.404
REMARK INTRA:                  -3.222
REMARK CONF_INDEPENDENT:        2.386
REMARK UNBOUND:                -3.222
REMARK SMILES CC1(C)C(C=C(Br)Br)C1C(=O)OC(C#N)c1cccc(Oc2ccccc2)c1
REMARK SMILES IDX 13 1 12 2 10 3 11 4 9 5 4 6 2 7 1 8 3 9 5 10 7 11 6 12 8 13
REMARK SMILES IDX 16 14 28 15 17 16 20 17 18 18 19 19 21 20 22 21 23 22 27 23
REMARK SMILES IDX 24 24 26 25 25 26 14 27 15 28
REMARK H PARENT
REMARK Flexibility Score: inf
ROOT
ATOM      1  C   UNL     1       2.625   3.085  -2.594  1.00  0.00     0.309 C
ENDROOT
BRANCH   1   2
ATOM      2  O   UNL     1       1.425   3.666  -3.123  1.00  0.00    -0.442 OA
BRANCH   2   3
ATOM      3  C   UNL     1       0.735   4.461  -2.262  1.00  0.00     0.311 C
ATOM      4  O   UNL     1       1.069   4.787  -1.131  1.00  0.00    -0.252 OA
BRANCH   3   5
ATOM      5  C   UNL     1      -0.543   4.926  -2.860  1.00  0.00     0.113 C
ATOM      6  C   UNL     1      -1.822   4.379  -2.313  1.00  0.00     0.035 C
ATOM      7  C   UNL     1      -1.365   3.992  -3.689  1.00  0.00    -0.014 C
ATOM      8  C   UNL     1      -0.904   2.586  -3.886  1.00  0.00     0.012 C
ATOM      9  C   UNL     1      -2.046   4.569  -4.885  1.00  0.00     0.012 C
BRANCH   6  10
ATOM     10  C   UNL     1      -1.754   3.425  -1.217  1.00  0.00     0.001 C
ATOM     11  Br  UNL     1      -2.625   5.281   0.752  1.00  0.00    -0.043 Br
ATOM     12  C   UNL     1      -2.045   3.633   0.079  1.00  0.00     0.057 C
ATOM     13  Br  UNL     1      -1.888   2.254   1.340  1.00  0.00    -0.043 Br
ENDBRANCH   6  10
ENDBRANCH   3   5
ENDBRANCH   2   3
ENDBRANCH   1   2
BRANCH   1  14
ATOM     14  C   UNL     1       2.293   2.170  -1.466  1.00  0.00     0.011 A
ATOM     15  C   UNL     1       1.069   1.499  -1.448  1.00  0.00     0.055 A
ATOM     16  C   UNL     1       3.206   1.982  -0.429  1.00  0.00     0.009 A
ATOM     17  C   UNL     1       0.760   0.643  -0.392  1.00  0.00     0.127 A
ATOM     18  C   UNL     1       2.896   1.125   0.627  1.00  0.00     0.004 A
ATOM     19  C   UNL     1       1.672   0.456   0.646  1.00  0.00     0.047 A
BRANCH  17  20
ATOM     20  O   UNL     1      -0.434  -0.011  -0.373  1.00  0.00    -0.457 OA
BRANCH  20  21
ATOM     21  C   UNL     1      -1.049  -0.264  -1.589  1.00  0.00     0.127 A
ATOM     22  C   UNL     1      -2.253   0.352  -1.875  1.00  0.00     0.047 A
ATOM     23  C   UNL     1      -0.442  -1.125  -2.485  1.00  0.00     0.047 A
ATOM     24  C   UNL     1      -2.873   0.098  -3.099  1.00  0.00     0.004 A
ATOM     25  C   UNL     1      -1.061  -1.380  -3.708  1.00  0.00     0.004 A
ATOM     26  C   UNL     1      -2.276  -0.768  -4.016  1.00  0.00     0.000 A
ENDBRANCH  20  21
ENDBRANCH  17  20
ENDBRANCH   1  14
BRANCH   1  27
ATOM     27  C   UNL     1       3.359   2.405  -3.681  1.00  0.00     0.113 C
ATOM     28  N   UNL     1       3.945   1.875  -4.531  1.00  0.00    -0.194 NA
ENDBRANCH   1  27
TORSDOF 8
ENDMDL
MODEL 9
REMARK VINA RESULT:    -6.884      3.624      5.118
REMARK INTER + INTRA:         -12.624
REMARK INTER:                  -9.271
REMARK INTRA:                  -3.353
REMARK CONF_INDEPENDENT:        2.386
REMARK UNBOUND:                -3.353
REMARK SMILES CC1(C)C(C=C(Br)Br)C1C(=O)OC(C#N)c1cccc(Oc2ccccc2)c1
REMARK SMILES IDX 13 1 12 2 10 3 11 4 9 5 4 6 2 7 1 8 3 9 5 10 7 11 6 12 8 13
REMARK SMILES IDX 16 14 28 15 17 16 20 17 18 18 19 19 21 20 22 21 23 22 27 23
REMARK SMILES IDX 24 24 26 25 25 26 14 27 15 28
REMARK H PARENT
REMARK Flexibility Score: inf
ROOT
ATOM      1  C   UNL     1       1.489   4.432  -2.542  1.00  0.00     0.309 C
ENDROOT
BRANCH   1   2
ATOM      2  O   UNL     1       1.019   3.751  -1.371  1.00  0.00    -0.442 OA
BRANCH   2   3
ATOM      3  C   UNL     1       1.692   2.614  -1.049  1.00  0.00     0.311 C
ATOM      4  O   UNL     1       2.869   2.520  -0.728  1.00  0.00    -0.252 OA
BRANCH   3   5
ATOM      5  C   UNL     1       0.811   1.420  -1.130  1.00  0.00     0.113 C
ATOM      6  C   UNL     1      -0.572   1.520  -0.570  1.00  0.00     0.035 C
ATOM      7  C   UNL     1       0.457   0.666   0.111  1.00  0.00    -0.014 C
ATOM      8  C   UNL     1       0.974   1.137   1.429  1.00  0.00     0.012 C
ATOM      9  C   UNL     1       0.375  -0.820  -0.000  1.00  0.00     0.012 C
BRANCH   6  10
ATOM     10  C   UNL     1      -0.990   2.783   0.019  1.00  0.00     0.001 C
ATOM     11  Br  UNL     1      -3.046   3.252  -1.887  1.00  0.00    -0.043 Br
ATOM     12  C   UNL     1      -1.972   3.602  -0.395  1.00  0.00     0.057 C
ATOM     13  Br  UNL     1      -2.350   5.197   0.516  1.00  0.00    -0.043 Br
ENDBRANCH   6  10
ENDBRANCH   3   5
ENDBRANCH   2   3
ENDBRANCH   1   2
BRANCH   1  14
ATOM     14  C   UNL     1       1.386   3.535  -3.728  1.00  0.00     0.011 A
ATOM     15  C   UNL     1       0.184   2.883  -4.007  1.00  0.00     0.055 A
ATOM     16  C   UNL     1       2.490   3.349  -4.560  1.00  0.00     0.009 A
ATOM     17  C   UNL     1       0.088   2.045  -5.117  1.00  0.00     0.127 A
ATOM     18  C   UNL     1       2.392   2.510  -5.670  1.00  0.00     0.004 A
ATOM     19  C   UNL     1       1.192   1.858  -5.949  1.00  0.00     0.047 A
BRANCH  17  20
ATOM     20  O   UNL     1      -1.084   1.408  -5.390  1.00  0.00    -0.457 OA
BRANCH  20  21
ATOM     21  C   UNL     1      -1.512   0.437  -4.498  1.00  0.00     0.127 A
ATOM     22  C   UNL     1      -0.571  -0.308  -3.813  1.00  0.00     0.047 A
ATOM     23  C   UNL     1      -2.869   0.240  -4.317  1.00  0.00     0.047 A
ATOM     24  C   UNL     1      -1.000  -1.286  -2.915  1.00  0.00     0.004 A
ATOM     25  C   UNL     1      -3.298  -0.738  -3.420  1.00  0.00     0.004 A
ATOM     26  C   UNL     1      -2.365  -1.500  -2.718  1.00  0.00     0.000 A
ENDBRANCH  20  21
ENDBRANCH  17  20
ENDBRANCH   1  14
BRANCH   1  27
ATOM     27  C   UNL     1       0.734   5.690  -2.712  1.00  0.00     0.113 C
ATOM     28  N   UNL     1       0.143   6.680  -2.836  1.00  0.00    -0.194 NA
ENDBRANCH   1  27
TORSDOF 8
ENDMDL
