MODEL 1
REMARK VINA RESULT:     0.000      0.000      0.000
REMARK INTER + INTRA:          -3.421
REMARK INTER:                   0.000
REMARK INTRA:                  -3.421
REMARK UNBOUND:                -3.421
REMARK SMILES CC1(C)[C@H](C=C(Cl)Cl)[C@H]1C(=O)OCc1cccc(Oc2ccccc2)c1
REMARK SMILES IDX 13 1 12 2 10 3 11 4 9 5 4 6 2 7 1 8 3 9 5 10 7 11 6 12 8 13
REMARK SMILES IDX 14 14 26 15 15 16 18 17 16 18 17 19 19 20 20 21 21 22 25 23
REMARK SMILES IDX 22 24 24 25 23 26
REMARK H PARENT
REMARK Flexibility Score: inf
ROOT
ATOM      1  C   UNL     1       1.239   6.778   6.797  1.00  0.00     0.268 C 
ENDROOT
BRANCH   1   2
ATOM      2  O   UNL     1       1.058   5.492   6.216  1.00  0.00    -0.461 OA
BRANCH   2   3
ATOM      3  C   UNL     1       0.593   5.480   4.934  1.00  0.00     0.310 C 
ATOM      4  O   UNL     1      -0.214   6.258   4.444  1.00  0.00    -0.252 OA
BRANCH   3   5
ATOM      5  C   UNL     1       1.189   4.376   4.139  1.00  0.00     0.113 C 
ATOM      6  C   UNL     1       2.582   3.940   4.465  1.00  0.00     0.035 C 
ATOM      7  C   UNL     1       2.300   4.659   3.179  1.00  0.00    -0.014 C 
ATOM      8  C   UNL     1       2.398   3.871   1.916  1.00  0.00     0.012 C 
ATOM      9  C   UNL     1       2.714   6.083   3.019  1.00  0.00     0.012 C 
BRANCH   6  10
ATOM     10  C   UNL     1       2.876   2.514   4.463  1.00  0.00     0.011 C 
ATOM     11  Cl  UNL     1       3.269   2.362   7.125  1.00  0.00    -0.071 Cl
ATOM     12  C   UNL     1       3.179   1.739   5.516  1.00  0.00     0.103 C 
ATOM     13  Cl  UNL     1       3.500   0.054   5.298  1.00  0.00    -0.071 Cl
ENDBRANCH   6  10
ENDBRANCH   3   5
ENDBRANCH   2   3
ENDBRANCH   1   2
BRANCH   1  14
ATOM     14  C   UNL     1       2.559   7.331   6.378  1.00  0.00    -0.007 A 
ATOM     15  C   UNL     1       3.720   6.580   6.563  1.00  0.00     0.054 A 
ATOM     16  C   UNL     1       2.632   8.598   5.799  1.00  0.00     0.007 A 
ATOM     17  C   UNL     1       4.954   7.098   6.170  1.00  0.00     0.127 A 
ATOM     18  C   UNL     1       3.866   9.116   5.408  1.00  0.00     0.004 A 
ATOM     19  C   UNL     1       5.027   8.365   5.592  1.00  0.00     0.047 A 
BRANCH  17  20
ATOM     20  O   UNL     1       6.088   6.366   6.350  1.00  0.00    -0.457 OA
BRANCH  20  21
ATOM     21  C   UNL     1       6.222   5.197   5.621  1.00  0.00     0.127 A 
ATOM     22  C   UNL     1       6.108   5.246   4.243  1.00  0.00     0.047 A 
ATOM     23  C   UNL     1       6.468   4.011   6.288  1.00  0.00     0.047 A 
ATOM     24  C   UNL     1       6.244   4.069   3.508  1.00  0.00     0.004 A 
ATOM     25  C   UNL     1       6.604   2.833   5.552  1.00  0.00     0.004 A 
ATOM     26  C   UNL     1       6.492   2.863   4.162  1.00  0.00     0.000 A 
ENDBRANCH  20  21
ENDBRANCH  17  20
ENDBRANCH   1  14
TORSDOF 7
ENDMDL
MODEL 2
REMARK VINA RESULT:     0.000      3.257      5.670
REMARK INTER + INTRA:          -3.420
REMARK INTER:                   0.000
REMARK INTRA:                  -3.420
REMARK UNBOUND:                -3.421
REMARK SMILES CC1(C)[C@H](C=C(Cl)Cl)[C@H]1C(=O)OCc1cccc(Oc2ccccc2)c1
REMARK SMILES IDX 13 1 12 2 10 3 11 4 9 5 4 6 2 7 1 8 3 9 5 10 7 11 6 12 8 13
REMARK SMILES IDX 14 14 26 15 15 16 18 17 16 18 17 19 19 20 20 21 21 22 25 23
REMARK SMILES IDX 22 24 24 25 23 26
REMARK H PARENT
REMARK Flexibility Score: inf
ROOT
ATOM      1  C   UNL     1       2.662   5.963   1.073  1.00  0.00     0.268 C 
ENDROOT
BRANCH   1   2
ATOM      2  O   UNL     1       2.172   4.633   1.185  1.00  0.00    -0.461 OA
BRANCH   2   3
ATOM      3  C   UNL     1       2.989   3.750   1.830  1.00  0.00     0.310 C 
ATOM      4  O   UNL     1       4.211   3.724   1.787  1.00  0.00    -0.252 OA
BRANCH   3   5
ATOM      5  C   UNL     1       2.219   2.770   2.636  1.00  0.00     0.113 C 
ATOM      6  C   UNL     1       0.921   3.209   3.236  1.00  0.00     0.035 C 
ATOM      7  C   UNL     1       2.106   2.942   4.117  1.00  0.00    -0.014 C 
ATOM      8  C   UNL     1       2.051   1.737   4.995  1.00  0.00     0.012 C 
ATOM      9  C   UNL     1       2.848   4.083   4.728  1.00  0.00     0.012 C 
BRANCH   6  10
ATOM     10  C   UNL     1      -0.200   2.281   3.208  1.00  0.00     0.011 C 
ATOM     11  Cl  UNL     1      -1.654   3.737   1.468  1.00  0.00    -0.071 Cl
ATOM     12  C   UNL     1      -1.338   2.393   2.505  1.00  0.00     0.103 C 
ATOM     13  Cl  UNL     1      -2.557   1.171   2.614  1.00  0.00    -0.071 Cl
ENDBRANCH   6  10
ENDBRANCH   3   5
ENDBRANCH   2   3
ENDBRANCH   1   2
BRANCH   1  14
ATOM     14  C   UNL     1       2.371   6.707   2.331  1.00  0.00    -0.007 A 
ATOM     15  C   UNL     1       1.071   6.742   2.836  1.00  0.00     0.054 A 
ATOM     16  C   UNL     1       3.398   7.368   3.005  1.00  0.00     0.007 A 
ATOM     17  C   UNL     1       0.799   7.439   4.013  1.00  0.00     0.127 A 
ATOM     18  C   UNL     1       3.126   8.065   4.181  1.00  0.00     0.004 A 
ATOM     19  C   UNL     1       1.826   8.099   4.686  1.00  0.00     0.047 A 
BRANCH  17  20
ATOM     20  O   UNL     1      -0.470   7.473   4.506  1.00  0.00    -0.457 OA
BRANCH  20  21
ATOM     21  C   UNL     1      -1.020   6.284   4.953  1.00  0.00     0.127 A 
ATOM     22  C   UNL     1      -0.343   5.545   5.908  1.00  0.00     0.047 A 
ATOM     23  C   UNL     1      -2.231   5.865   4.435  1.00  0.00     0.047 A 
ATOM     24  C   UNL     1      -0.897   4.348   6.358  1.00  0.00     0.004 A 
ATOM     25  C   UNL     1      -2.785   4.666   4.886  1.00  0.00     0.004 A 
ATOM     26  C   UNL     1      -2.118   3.908   5.848  1.00  0.00     0.000 A 
ENDBRANCH  20  21
ENDBRANCH  17  20
ENDBRANCH   1  14
TORSDOF 7
ENDMDL
MODEL 3
REMARK VINA RESULT:     0.001      7.751     10.139
REMARK INTER + INTRA:          -3.420
REMARK INTER:                   0.000
REMARK INTRA:                  -3.420
REMARK UNBOUND:                -3.421
REMARK SMILES CC1(C)[C@H](C=C(Cl)Cl)[C@H]1C(=O)OCc1cccc(Oc2ccccc2)c1
REMARK SMILES IDX 13 1 12 2 10 3 11 4 9 5 4 6 2 7 1 8 3 9 5 10 7 11 6 12 8 13
REMARK SMILES IDX 14 14 26 15 15 16 18 17 16 18 17 19 19 20 20 21 21 22 25 23
REMARK SMILES IDX 22 24 24 25 23 26
REMARK H PARENT
REMARK Flexibility Score: inf
ROOT
ATOM      1  C   UNL     1       2.069  -2.170   2.131  1.00  0.00     0.268 C 
ENDROOT
BRANCH   1   2
ATOM      2  O   UNL     1       3.320  -1.713   1.634  1.00  0.00    -0.461 OA
BRANCH   2   3
ATOM      3  C   UNL     1       4.105  -2.658   1.040  1.00  0.00     0.310 C 
ATOM      4  O   UNL     1       4.211  -3.830   1.371  1.00  0.00    -0.252 OA
BRANCH   3   5
ATOM      5  C   UNL     1       4.862  -2.104  -0.111  1.00  0.00     0.113 C 
ATOM      6  C   UNL     1       4.238  -1.000  -0.905  1.00  0.00     0.035 C 
ATOM      7  C   UNL     1       4.396  -2.365  -1.509  1.00  0.00    -0.014 C 
ATOM      8  C   UNL     1       5.400  -2.520  -2.601  1.00  0.00     0.012 C 
ATOM      9  C   UNL     1       3.203  -3.245  -1.675  1.00  0.00     0.012 C 
BRANCH   6  10
ATOM     10  C   UNL     1       5.086   0.101  -1.339  1.00  0.00     0.011 C 
ATOM     11  Cl  UNL     1       3.916   1.930   0.257  1.00  0.00    -0.071 Cl
ATOM     12  C   UNL     1       5.048   1.377  -0.925  1.00  0.00     0.103 C 
ATOM     13  Cl  UNL     1       6.151   2.540  -1.573  1.00  0.00    -0.071 Cl
ENDBRANCH   6  10
ENDBRANCH   3   5
ENDBRANCH   2   3
ENDBRANCH   1   2
BRANCH   1  14
ATOM     14  C   UNL     1       1.076  -2.207   1.019  1.00  0.00    -0.007 A 
ATOM     15  C   UNL     1       0.867  -1.073   0.234  1.00  0.00     0.054 A 
ATOM     16  C   UNL     1       0.358  -3.375   0.764  1.00  0.00     0.007 A 
ATOM     17  C   UNL     1      -0.061  -1.108  -0.807  1.00  0.00     0.127 A 
ATOM     18  C   UNL     1      -0.571  -3.409  -0.276  1.00  0.00     0.004 A 
ATOM     19  C   UNL     1      -0.780  -2.275  -1.061  1.00  0.00     0.047 A 
BRANCH  17  20
ATOM     20  O   UNL     1      -0.265  -0.002  -1.574  1.00  0.00    -0.457 OA
BRANCH  20  21
ATOM     21  C   UNL     1       0.778   0.429  -2.374  1.00  0.00     0.127 A 
ATOM     22  C   UNL     1       1.354  -0.459  -3.266  1.00  0.00     0.047 A 
ATOM     23  C   UNL     1       1.220   1.734  -2.263  1.00  0.00     0.047 A 
ATOM     24  C   UNL     1       2.405  -0.026  -4.073  1.00  0.00     0.004 A 
ATOM     25  C   UNL     1       2.272   2.167  -3.070  1.00  0.00     0.004 A 
ATOM     26  C   UNL     1       2.864   1.287  -3.976  1.00  0.00     0.000 A 
ENDBRANCH  20  21
ENDBRANCH  17  20
ENDBRANCH   1  14
TORSDOF 7
ENDMDL
MODEL 4
REMARK VINA RESULT:     0.001     12.263     15.225
REMARK INTER + INTRA:          -3.420
REMARK INTER:                   0.000
REMARK INTRA:                  -3.420
REMARK UNBOUND:                -3.421
REMARK SMILES CC1(C)[C@H](C=C(Cl)Cl)[C@H]1C(=O)OCc1cccc(Oc2ccccc2)c1
REMARK SMILES IDX 13 1 12 2 10 3 11 4 9 5 4 6 2 7 1 8 3 9 5 10 7 11 6 12 8 13
REMARK SMILES IDX 14 14 26 15 15 16 18 17 16 18 17 19 19 20 20 21 21 22 25 23
REMARK SMILES IDX 22 24 24 25 23 26
REMARK H PARENT
REMARK Flexibility Score: inf
ROOT
ATOM      1  C   UNL     1      -3.165  -4.705  11.400  1.00  0.00     0.268 C 
ENDROOT
BRANCH   1   2
ATOM      2  O   UNL     1      -3.055  -4.293  10.044  1.00  0.00    -0.461 OA
BRANCH   2   3
ATOM      3  C   UNL     1      -1.841  -4.501   9.456  1.00  0.00     0.310 C 
ATOM      4  O   UNL     1      -0.746  -4.406   9.993  1.00  0.00    -0.252 OA
BRANCH   3   5
ATOM      5  C   UNL     1      -1.975  -4.874   8.025  1.00  0.00     0.113 C 
ATOM      6  C   UNL     1      -3.185  -5.647   7.605  1.00  0.00     0.035 C 
ATOM      7  C   UNL     1      -1.835  -6.303   7.608  1.00  0.00    -0.014 C 
ATOM      8  C   UNL     1      -1.226  -6.626   6.285  1.00  0.00     0.012 C 
ATOM      9  C   UNL     1      -1.494  -7.292   8.671  1.00  0.00     0.012 C 
BRANCH   6  10
ATOM     10  C   UNL     1      -3.828  -5.290   6.348  1.00  0.00     0.011 C 
ATOM     11  Cl  UNL     1      -6.066  -4.334   7.505  1.00  0.00    -0.071 Cl
ATOM     12  C   UNL     1      -5.036  -4.733   6.177  1.00  0.00     0.103 C 
ATOM     13  Cl  UNL     1      -5.623  -4.388   4.587  1.00  0.00    -0.071 Cl
ENDBRANCH   6  10
ENDBRANCH   3   5
ENDBRANCH   2   3
ENDBRANCH   1   2
BRANCH   1  14
ATOM     14  C   UNL     1      -3.458  -6.166  11.453  1.00  0.00    -0.007 A 
ATOM     15  C   UNL     1      -4.530  -6.689  10.730  1.00  0.00     0.054 A 
ATOM     16  C   UNL     1      -2.659  -7.010  12.225  1.00  0.00     0.007 A 
ATOM     17  C   UNL     1      -4.803  -8.056  10.779  1.00  0.00     0.127 A 
ATOM     18  C   UNL     1      -2.933  -8.377  12.275  1.00  0.00     0.004 A 
ATOM     19  C   UNL     1      -4.005  -8.899  11.551  1.00  0.00     0.047 A 
BRANCH  17  20
ATOM     20  O   UNL     1      -5.849  -8.567  10.074  1.00  0.00    -0.457 OA
BRANCH  20  21
ATOM     21  C   UNL     1      -5.779  -8.520   8.692  1.00  0.00     0.127 A 
ATOM     22  C   UNL     1      -4.682  -9.074   8.055  1.00  0.00     0.047 A 
ATOM     23  C   UNL     1      -6.805  -7.922   7.984  1.00  0.00     0.047 A 
ATOM     24  C   UNL     1      -4.611  -9.027   6.663  1.00  0.00     0.004 A 
ATOM     25  C   UNL     1      -6.733  -7.876   6.592  1.00  0.00     0.004 A 
ATOM     26  C   UNL     1      -5.636  -8.429   5.931  1.00  0.00     0.000 A 
ENDBRANCH  20  21
ENDBRANCH  17  20
ENDBRANCH   1  14
TORSDOF 7
ENDMDL
MODEL 5
REMARK VINA RESULT:     0.001      6.891      9.762
REMARK INTER + INTRA:          -3.419
REMARK INTER:                   0.000
REMARK INTRA:                  -3.419
REMARK UNBOUND:                -3.421
REMARK SMILES CC1(C)[C@H](C=C(Cl)Cl)[C@H]1C(=O)OCc1cccc(Oc2ccccc2)c1
REMARK SMILES IDX 13 1 12 2 10 3 11 4 9 5 4 6 2 7 1 8 3 9 5 10 7 11 6 12 8 13
REMARK SMILES IDX 14 14 26 15 15 16 18 17 16 18 17 19 19 20 20 21 21 22 25 23
REMARK SMILES IDX 22 24 24 25 23 26
REMARK H PARENT
REMARK Flexibility Score: inf
ROOT
ATOM      1  C   UNL     1      -5.573   7.245   5.481  1.00  0.00     0.268 C 
ENDROOT
BRANCH   1   2
ATOM      2  O   UNL     1      -4.937   5.976   5.575  1.00  0.00    -0.461 OA
BRANCH   2   3
ATOM      3  C   UNL     1      -3.573   5.992   5.550  1.00  0.00     0.310 C 
ATOM      4  O   UNL     1      -2.865   6.748   4.899  1.00  0.00    -0.252 OA
BRANCH   3   5
ATOM      5  C   UNL     1      -2.991   4.951   6.435  1.00  0.00     0.113 C 
ATOM      6  C   UNL     1      -3.742   4.572   7.672  1.00  0.00     0.035 C 
ATOM      7  C   UNL     1      -2.450   5.327   7.777  1.00  0.00    -0.014 C 
ATOM      8  C   UNL     1      -1.270   4.596   8.325  1.00  0.00     0.012 C 
ATOM      9  C   UNL     1      -2.464   6.775   8.135  1.00  0.00     0.012 C 
BRANCH   6  10
ATOM     10  C   UNL     1      -3.805   3.164   8.035  1.00  0.00     0.011 C 
ATOM     11  Cl  UNL     1      -6.446   2.925   7.557  1.00  0.00    -0.071 Cl
ATOM     12  C   UNL     1      -4.882   2.364   8.028  1.00  0.00     0.103 C 
ATOM     13  Cl  UNL     1      -4.744   0.706   8.503  1.00  0.00    -0.071 Cl
ENDBRANCH   6  10
ENDBRANCH   3   5
ENDBRANCH   2   3
ENDBRANCH   1   2
BRANCH   1  14
ATOM     14  C   UNL     1      -5.617   7.879   6.831  1.00  0.00    -0.007 A 
ATOM     15  C   UNL     1      -6.152   7.179   7.912  1.00  0.00     0.054 A 
ATOM     16  C   UNL     1      -5.121   9.170   7.011  1.00  0.00     0.007 A 
ATOM     17  C   UNL     1      -6.193   7.773   9.174  1.00  0.00     0.127 A 
ATOM     18  C   UNL     1      -5.163   9.763   8.272  1.00  0.00     0.004 A 
ATOM     19  C   UNL     1      -5.698   9.064   9.354  1.00  0.00     0.047 A 
BRANCH  17  20
ATOM     20  O   UNL     1      -6.715   7.091  10.230  1.00  0.00    -0.457 OA
BRANCH  20  21
ATOM     21  C   UNL     1      -6.044   5.960  10.663  1.00  0.00     0.127 A 
ATOM     22  C   UNL     1      -4.704   6.059  10.996  1.00  0.00     0.047 A 
ATOM     23  C   UNL     1      -6.728   4.762  10.751  1.00  0.00     0.047 A 
ATOM     24  C   UNL     1      -4.028   4.920  11.432  1.00  0.00     0.004 A 
ATOM     25  C   UNL     1      -6.050   3.623  11.187  1.00  0.00     0.004 A 
ATOM     26  C   UNL     1      -4.700   3.703  11.528  1.00  0.00     0.000 A 
ENDBRANCH  20  21
ENDBRANCH  17  20
ENDBRANCH   1  14
TORSDOF 7
ENDMDL
