MODEL 1
REMARK VINA RESULT:    -7.840      0.000      0.000
REMARK INTER + INTRA:         -11.611
REMARK INTER:                  -9.928
REMARK INTRA:                  -1.683
REMARK CONF_INDEPENDENT:        2.088
REMARK UNBOUND:                -1.683
REMARK SMILES CC1(C)[C@H](C=C(Cl)Cl)[C@H]1C(=O)OCc1cccc(Oc2ccccc2)c1
REMARK SMILES IDX 13 1 12 2 10 3 11 4 9 5 4 6 2 7 1 8 3 9 5 10 7 11 6 12 8 13
REMARK SMILES IDX 14 14 26 15 15 16 18 17 16 18 17 19 19 20 20 21 21 22 25 23
REMARK SMILES IDX 22 24 24 25 23 26
REMARK H PARENT
REMARK Flexibility Score: inf
ROOT
ATOM      1  C   UNL     1      -4.670  -0.675  -2.465  1.00  0.00     0.268 C 
ENDROOT
BRANCH   1   2
ATOM      2  O   UNL     1      -5.190  -1.272  -3.646  1.00  0.00    -0.461 OA
BRANCH   2   3
ATOM      3  C   UNL     1      -5.725  -0.412  -4.560  1.00  0.00     0.310 C 
ATOM      4  O   UNL     1      -6.713  -0.608  -5.253  1.00  0.00    -0.252 OA
BRANCH   3   5
ATOM      5  C   UNL     1      -4.956   0.856  -4.642  1.00  0.00     0.113 C 
ATOM      6  C   UNL     1      -5.553   1.999  -5.401  1.00  0.00     0.035 C 
ATOM      7  C   UNL     1      -4.350   1.282  -5.942  1.00  0.00    -0.014 C 
ATOM      8  C   UNL     1      -3.054   2.019  -5.941  1.00  0.00     0.012 C 
ATOM      9  C   UNL     1      -4.500   0.352  -7.099  1.00  0.00     0.012 C 
BRANCH   6  10
ATOM     10  C   UNL     1      -5.424   3.338  -4.845  1.00  0.00     0.011 C 
ATOM     11  Cl  UNL     1      -6.000   4.598  -7.155  1.00  0.00    -0.071 Cl
ATOM     12  C   UNL     1      -5.588   4.508  -5.481  1.00  0.00     0.103 C 
ATOM     13  Cl  UNL     1      -5.385   6.001  -4.631  1.00  0.00    -0.071 Cl
ENDBRANCH   6  10
ENDBRANCH   3   5
ENDBRANCH   2   3
ENDBRANCH   1   2
BRANCH   1  14
ATOM     14  C   UNL     1      -3.192  -0.524  -2.593  1.00  0.00    -0.007 A 
ATOM     15  C   UNL     1      -2.555   0.591  -2.049  1.00  0.00     0.054 A 
ATOM     16  C   UNL     1      -2.447  -1.499  -3.256  1.00  0.00     0.007 A 
ATOM     17  C   UNL     1      -1.172   0.731  -2.170  1.00  0.00     0.127 A 
ATOM     18  C   UNL     1      -1.065  -1.358  -3.377  1.00  0.00     0.004 A 
ATOM     19  C   UNL     1      -0.428  -0.243  -2.833  1.00  0.00     0.047 A 
BRANCH  17  20
ATOM     20  O   UNL     1      -0.550   1.820  -1.640  1.00  0.00    -0.457 OA
BRANCH  20  21
ATOM     21  C   UNL     1       0.646   1.617  -0.973  1.00  0.00     0.127 A 
ATOM     22  C   UNL     1       0.635   0.957   0.244  1.00  0.00     0.047 A 
ATOM     23  C   UNL     1       1.820   2.079  -1.538  1.00  0.00     0.047 A 
ATOM     24  C   UNL     1       1.840   0.753   0.916  1.00  0.00     0.004 A 
ATOM     25  C   UNL     1       3.025   1.874  -0.865  1.00  0.00     0.004 A 
ATOM     26  C   UNL     1       3.035   1.210   0.361  1.00  0.00     0.000 A 
ENDBRANCH  20  21
ENDBRANCH  17  20
ENDBRANCH   1  14
TORSDOF 7
ENDMDL
MODEL 2
REMARK VINA RESULT:    -7.802      3.939      7.339
REMARK INTER + INTRA:         -11.663
REMARK INTER:                  -9.891
REMARK INTRA:                  -1.773
REMARK CONF_INDEPENDENT:        2.088
REMARK UNBOUND:                -1.773
REMARK SMILES CC1(C)[C@H](C=C(Cl)Cl)[C@H]1C(=O)OCc1cccc(Oc2ccccc2)c1
REMARK SMILES IDX 13 1 12 2 10 3 11 4 9 5 4 6 2 7 1 8 3 9 5 10 7 11 6 12 8 13
REMARK SMILES IDX 14 14 26 15 15 16 18 17 16 18 17 19 19 20 20 21 21 22 25 23
REMARK SMILES IDX 22 24 24 25 23 26
REMARK H PARENT
REMARK Flexibility Score: inf
ROOT
ATOM      1  C   UNL     1      -0.135   2.735  -0.834  1.00  0.00     0.268 C 
ENDROOT
BRANCH   1   2
ATOM      2  O   UNL     1       1.230   3.132  -0.801  1.00  0.00    -0.461 OA
BRANCH   2   3
ATOM      3  C   UNL     1       1.649   3.906  -1.844  1.00  0.00     0.310 C 
ATOM      4  O   UNL     1       1.656   5.128  -1.888  1.00  0.00    -0.252 OA
BRANCH   3   5
ATOM      5  C   UNL     1       2.123   3.085  -2.987  1.00  0.00     0.113 C 
ATOM      6  C   UNL     1       2.699   3.789  -4.175  1.00  0.00     0.035 C 
ATOM      7  C   UNL     1       1.372   3.096  -4.280  1.00  0.00    -0.014 C 
ATOM      8  C   UNL     1       1.309   1.854  -5.104  1.00  0.00     0.012 C 
ATOM      9  C   UNL     1       0.117   3.902  -4.331  1.00  0.00     0.012 C 
BRANCH   6  10
ATOM     10  C   UNL     1       3.880   3.219  -4.808  1.00  0.00     0.011 C 
ATOM     11  Cl  UNL     1       4.827   5.583  -5.687  1.00  0.00    -0.071 Cl
ATOM     12  C   UNL     1       4.847   3.870  -5.473  1.00  0.00     0.103 C 
ATOM     13  Cl  UNL     1       6.175   2.999  -6.158  1.00  0.00    -0.071 Cl
ENDBRANCH   6  10
ENDBRANCH   3   5
ENDBRANCH   2   3
ENDBRANCH   1   2
BRANCH   1  14
ATOM     14  C   UNL     1      -0.219   1.264  -1.066  1.00  0.00    -0.007 A 
ATOM     15  C   UNL     1      -0.715   0.777  -2.275  1.00  0.00     0.054 A 
ATOM     16  C   UNL     1       0.200   0.377  -0.074  1.00  0.00     0.007 A 
ATOM     17  C   UNL     1      -0.792  -0.599  -2.491  1.00  0.00     0.127 A 
ATOM     18  C   UNL     1       0.121  -0.998  -0.291  1.00  0.00     0.004 A 
ATOM     19  C   UNL     1      -0.375  -1.486  -1.500  1.00  0.00     0.047 A 
BRANCH  17  20
ATOM     20  O   UNL     1      -1.276  -1.076  -3.671  1.00  0.00    -0.457 OA
BRANCH  20  21
ATOM     21  C   UNL     1      -2.617  -0.869  -3.949  1.00  0.00     0.127 A 
ATOM     22  C   UNL     1      -3.539  -0.957  -2.920  1.00  0.00     0.047 A 
ATOM     23  C   UNL     1      -3.001  -0.580  -5.245  1.00  0.00     0.047 A 
ATOM     24  C   UNL     1      -4.888  -0.749  -3.199  1.00  0.00     0.004 A 
ATOM     25  C   UNL     1      -4.352  -0.371  -5.523  1.00  0.00     0.004 A 
ATOM     26  C   UNL     1      -5.296  -0.455  -4.500  1.00  0.00     0.000 A 
ENDBRANCH  20  21
ENDBRANCH  17  20
ENDBRANCH   1  14
TORSDOF 7
ENDMDL
MODEL 3
REMARK VINA RESULT:    -7.298      1.831      2.457
REMARK INTER + INTRA:         -11.499
REMARK INTER:                  -9.386
REMARK INTRA:                  -2.113
REMARK CONF_INDEPENDENT:        2.088
REMARK UNBOUND:                -2.113
REMARK SMILES CC1(C)[C@H](C=C(Cl)Cl)[C@H]1C(=O)OCc1cccc(Oc2ccccc2)c1
REMARK SMILES IDX 13 1 12 2 10 3 11 4 9 5 4 6 2 7 1 8 3 9 5 10 7 11 6 12 8 13
REMARK SMILES IDX 14 14 26 15 15 16 18 17 16 18 17 19 19 20 20 21 21 22 25 23
REMARK SMILES IDX 22 24 24 25 23 26
REMARK H PARENT
REMARK Flexibility Score: inf
ROOT
ATOM      1  C   UNL     1      -4.476  -0.728  -3.010  1.00  0.00     0.268 C 
ENDROOT
BRANCH   1   2
ATOM      2  O   UNL     1      -4.653  -1.097  -4.371  1.00  0.00    -0.461 OA
BRANCH   2   3
ATOM      3  C   UNL     1      -5.552  -0.352  -5.078  1.00  0.00     0.310 C 
ATOM      4  O   UNL     1      -6.770  -0.444  -5.031  1.00  0.00    -0.252 OA
BRANCH   3   5
ATOM      5  C   UNL     1      -4.880   0.638  -5.957  1.00  0.00     0.113 C 
ATOM      6  C   UNL     1      -3.608   1.264  -5.478  1.00  0.00     0.035 C 
ATOM      7  C   UNL     1      -4.861   2.085  -5.578  1.00  0.00    -0.014 C 
ATOM      8  C   UNL     1      -4.916   3.125  -6.646  1.00  0.00     0.012 C 
ATOM      9  C   UNL     1      -5.594   2.473  -4.338  1.00  0.00     0.012 C 
BRANCH   6  10
ATOM     10  C   UNL     1      -2.528   1.449  -6.435  1.00  0.00     0.011 C 
ATOM     11  Cl  UNL     1      -0.857   2.610  -4.669  1.00  0.00    -0.071 Cl
ATOM     12  C   UNL     1      -1.325   2.001  -6.216  1.00  0.00     0.103 C 
ATOM     13  Cl  UNL     1      -0.174   2.130  -7.500  1.00  0.00    -0.071 Cl
ENDBRANCH   6  10
ENDBRANCH   3   5
ENDBRANCH   2   3
ENDBRANCH   1   2
BRANCH   1  14
ATOM     14  C   UNL     1      -3.020  -0.621  -2.709  1.00  0.00    -0.007 A 
ATOM     15  C   UNL     1      -2.547   0.423  -1.914  1.00  0.00     0.054 A 
ATOM     16  C   UNL     1      -2.131  -1.566  -3.221  1.00  0.00     0.007 A 
ATOM     17  C   UNL     1      -1.184   0.522  -1.632  1.00  0.00     0.127 A 
ATOM     18  C   UNL     1      -0.769  -1.466  -2.940  1.00  0.00     0.004 A 
ATOM     19  C   UNL     1      -0.296  -0.422  -2.145  1.00  0.00     0.047 A 
BRANCH  17  20
ATOM     20  O   UNL     1      -0.722   1.541  -0.856  1.00  0.00    -0.457 OA
BRANCH  20  21
ATOM     21  C   UNL     1       0.607   1.507  -0.472  1.00  0.00     0.127 A 
ATOM     22  C   UNL     1       0.932   1.031   0.787  1.00  0.00     0.047 A 
ATOM     23  C   UNL     1       1.576   1.948  -1.354  1.00  0.00     0.047 A 
ATOM     24  C   UNL     1       2.271   0.996   1.174  1.00  0.00     0.004 A 
ATOM     25  C   UNL     1       2.916   1.912  -0.965  1.00  0.00     0.004 A 
ATOM     26  C   UNL     1       3.263   1.436   0.299  1.00  0.00     0.000 A 
ENDBRANCH  20  21
ENDBRANCH  17  20
ENDBRANCH   1  14
TORSDOF 7
ENDMDL
MODEL 4
REMARK VINA RESULT:    -6.996      3.199      7.320
REMARK INTER + INTRA:         -11.582
REMARK INTER:                  -9.084
REMARK INTRA:                  -2.498
REMARK CONF_INDEPENDENT:        2.088
REMARK UNBOUND:                -2.498
REMARK SMILES CC1(C)[C@H](C=C(Cl)Cl)[C@H]1C(=O)OCc1cccc(Oc2ccccc2)c1
REMARK SMILES IDX 13 1 12 2 10 3 11 4 9 5 4 6 2 7 1 8 3 9 5 10 7 11 6 12 8 13
REMARK SMILES IDX 14 14 26 15 15 16 18 17 16 18 17 19 19 20 20 21 21 22 25 23
REMARK SMILES IDX 22 24 24 25 23 26
REMARK H PARENT
REMARK Flexibility Score: inf
ROOT
ATOM      1  C   UNL     1      -2.244   2.313   1.907  1.00  0.00     0.268 C 
ENDROOT
BRANCH   1   2
ATOM      2  O   UNL     1      -1.369   1.209   1.717  1.00  0.00    -0.461 OA
BRANCH   2   3
ATOM      3  C   UNL     1      -0.038   1.506   1.670  1.00  0.00     0.310 C 
ATOM      4  O   UNL     1       0.743   1.503   2.611  1.00  0.00    -0.252 OA
BRANCH   3   5
ATOM      5  C   UNL     1       0.403   1.854   0.295  1.00  0.00     0.113 C 
ATOM      6  C   UNL     1       0.466   0.763  -0.726  1.00  0.00     0.035 C 
ATOM      7  C   UNL     1       1.731   1.382  -0.207  1.00  0.00    -0.014 C 
ATOM      8  C   UNL     1       2.509   2.242  -1.145  1.00  0.00     0.012 C 
ATOM      9  C   UNL     1       2.589   0.624   0.749  1.00  0.00     0.012 C 
BRANCH   6  10
ATOM     10  C   UNL     1       0.002   1.054  -2.075  1.00  0.00     0.011 C 
ATOM     11  Cl  UNL     1      -1.127  -1.363  -2.452  1.00  0.00    -0.071 Cl
ATOM     12  C   UNL     1      -0.677   0.243  -2.900  1.00  0.00     0.103 C 
ATOM     13  Cl  UNL     1      -1.136   0.785  -4.477  1.00  0.00    -0.071 Cl
ENDBRANCH   6  10
ENDBRANCH   3   5
ENDBRANCH   2   3
ENDBRANCH   1   2
BRANCH   1  14
ATOM     14  C   UNL     1      -2.687   2.830   0.581  1.00  0.00    -0.007 A 
ATOM     15  C   UNL     1      -3.770   2.239  -0.071  1.00  0.00     0.054 A 
ATOM     16  C   UNL     1      -2.020   3.905  -0.007  1.00  0.00     0.007 A 
ATOM     17  C   UNL     1      -4.184   2.723  -1.312  1.00  0.00     0.127 A 
ATOM     18  C   UNL     1      -2.434   4.388  -1.248  1.00  0.00     0.004 A 
ATOM     19  C   UNL     1      -3.517   3.797  -1.900  1.00  0.00     0.047 A 
BRANCH  17  20
ATOM     20  O   UNL     1      -5.240   2.147  -1.949  1.00  0.00    -0.457 OA
BRANCH  20  21
ATOM     21  C   UNL     1      -4.969   1.176  -2.898  1.00  0.00     0.127 A 
ATOM     22  C   UNL     1      -4.798   1.554  -4.218  1.00  0.00     0.047 A 
ATOM     23  C   UNL     1      -4.876  -0.146  -2.503  1.00  0.00     0.047 A 
ATOM     24  C   UNL     1      -4.524   0.576  -5.174  1.00  0.00     0.004 A 
ATOM     25  C   UNL     1      -4.602  -1.124  -3.460  1.00  0.00     0.004 A 
ATOM     26  C   UNL     1      -4.426  -0.762  -4.795  1.00  0.00     0.000 A 
ENDBRANCH  20  21
ENDBRANCH  17  20
ENDBRANCH   1  14
TORSDOF 7
ENDMDL
MODEL 5
REMARK VINA RESULT:    -6.812      2.944      4.077
REMARK INTER + INTRA:         -11.495
REMARK INTER:                  -8.900
REMARK INTRA:                  -2.596
REMARK CONF_INDEPENDENT:        2.088
REMARK UNBOUND:                -2.596
REMARK SMILES CC1(C)[C@H](C=C(Cl)Cl)[C@H]1C(=O)OCc1cccc(Oc2ccccc2)c1
REMARK SMILES IDX 13 1 12 2 10 3 11 4 9 5 4 6 2 7 1 8 3 9 5 10 7 11 6 12 8 13
REMARK SMILES IDX 14 14 26 15 15 16 18 17 16 18 17 19 19 20 20 21 21 22 25 23
REMARK SMILES IDX 22 24 24 25 23 26
REMARK H PARENT
REMARK Flexibility Score: inf
ROOT
ATOM      1  C   UNL     1      -5.229  -0.427  -1.841  1.00  0.00     0.268 C 
ENDROOT
BRANCH   1   2
ATOM      2  O   UNL     1      -4.339  -0.999  -2.792  1.00  0.00    -0.461 OA
BRANCH   2   3
ATOM      3  C   UNL     1      -4.768  -0.987  -4.088  1.00  0.00     0.310 C 
ATOM      4  O   UNL     1      -5.836  -1.412  -4.506  1.00  0.00    -0.252 OA
BRANCH   3   5
ATOM      5  C   UNL     1      -3.764  -0.378  -4.997  1.00  0.00     0.113 C 
ATOM      6  C   UNL     1      -3.356   1.040  -4.753  1.00  0.00     0.035 C 
ATOM      7  C   UNL     1      -4.177   0.689  -5.960  1.00  0.00    -0.014 C 
ATOM      8  C   UNL     1      -3.511   0.775  -7.292  1.00  0.00     0.012 C 
ATOM      9  C   UNL     1      -5.625   1.046  -6.001  1.00  0.00     0.012 C 
BRANCH   6  10
ATOM     10  C   UNL     1      -1.949   1.387  -4.894  1.00  0.00     0.011 C 
ATOM     11  Cl  UNL     1      -1.135  -0.130  -2.821  1.00  0.00    -0.071 Cl
ATOM     12  C   UNL     1      -0.922   0.960  -4.144  1.00  0.00     0.103 C 
ATOM     13  Cl  UNL     1       0.687   1.497  -4.478  1.00  0.00    -0.071 Cl
ENDBRANCH   6  10
ENDBRANCH   3   5
ENDBRANCH   2   3
ENDBRANCH   1   2
BRANCH   1  14
ATOM     14  C   UNL     1      -5.135   1.060  -1.904  1.00  0.00    -0.007 A 
ATOM     15  C   UNL     1      -4.179   1.731  -1.141  1.00  0.00     0.054 A 
ATOM     16  C   UNL     1      -6.001   1.779  -2.727  1.00  0.00     0.007 A 
ATOM     17  C   UNL     1      -4.091   3.121  -1.201  1.00  0.00     0.127 A 
ATOM     18  C   UNL     1      -5.913   3.169  -2.786  1.00  0.00     0.004 A 
ATOM     19  C   UNL     1      -4.958   3.840  -2.023  1.00  0.00     0.047 A 
BRANCH  17  20
ATOM     20  O   UNL     1      -3.159   3.777  -0.456  1.00  0.00    -0.457 OA
BRANCH  20  21
ATOM     21  C   UNL     1      -2.196   3.017   0.186  1.00  0.00     0.127 A 
ATOM     22  C   UNL     1      -1.054   2.653  -0.507  1.00  0.00     0.047 A 
ATOM     23  C   UNL     1      -2.399   2.641   1.500  1.00  0.00     0.047 A 
ATOM     24  C   UNL     1      -0.084   1.887   0.139  1.00  0.00     0.004 A 
ATOM     25  C   UNL     1      -1.428   1.875   2.146  1.00  0.00     0.004 A 
ATOM     26  C   UNL     1      -0.270   1.499   1.465  1.00  0.00     0.000 A 
ENDBRANCH  20  21
ENDBRANCH  17  20
ENDBRANCH   1  14
TORSDOF 7
ENDMDL
MODEL 6
REMARK VINA RESULT:    -6.709      4.130      6.274
REMARK INTER + INTRA:         -11.653
REMARK INTER:                  -8.797
REMARK INTRA:                  -2.856
REMARK CONF_INDEPENDENT:        2.088
REMARK UNBOUND:                -2.856
REMARK SMILES CC1(C)[C@H](C=C(Cl)Cl)[C@H]1C(=O)OCc1cccc(Oc2ccccc2)c1
REMARK SMILES IDX 13 1 12 2 10 3 11 4 9 5 4 6 2 7 1 8 3 9 5 10 7 11 6 12 8 13
REMARK SMILES IDX 14 14 26 15 15 16 18 17 16 18 17 19 19 20 20 21 21 22 25 23
REMARK SMILES IDX 22 24 24 25 23 26
REMARK H PARENT
REMARK Flexibility Score: inf
ROOT
ATOM      1  C   UNL     1       0.385   0.771   1.125  1.00  0.00     0.268 C 
ENDROOT
BRANCH   1   2
ATOM      2  O   UNL     1      -0.310   1.987   1.374  1.00  0.00    -0.461 OA
BRANCH   2   3
ATOM      3  C   UNL     1      -1.659   1.875   1.544  1.00  0.00     0.310 C 
ATOM      4  O   UNL     1      -2.250   1.727   2.605  1.00  0.00    -0.252 OA
BRANCH   3   5
ATOM      5  C   UNL     1      -2.388   1.955   0.254  1.00  0.00     0.113 C 
ATOM      6  C   UNL     1      -1.591   1.969  -1.012  1.00  0.00     0.035 C 
ATOM      7  C   UNL     1      -2.320   3.203  -0.569  1.00  0.00    -0.014 C 
ATOM      8  C   UNL     1      -3.508   3.622  -1.368  1.00  0.00     0.012 C 
ATOM      9  C   UNL     1      -1.557   4.351   0.000  1.00  0.00     0.012 C 
BRANCH   6  10
ATOM     10  C   UNL     1      -2.078   1.190  -2.142  1.00  0.00     0.011 C 
ATOM     11  Cl  UNL     1      -0.375  -0.861  -1.752  1.00  0.00    -0.071 Cl
ATOM     12  C   UNL     1      -1.647  -0.012  -2.554  1.00  0.00     0.103 C 
ATOM     13  Cl  UNL     1      -2.363  -0.772  -3.933  1.00  0.00    -0.071 Cl
ENDBRANCH   6  10
ENDBRANCH   3   5
ENDBRANCH   2   3
ENDBRANCH   1   2
BRANCH   1  14
ATOM     14  C   UNL     1       1.725   1.076   0.545  1.00  0.00    -0.007 A 
ATOM     15  C   UNL     1       1.824   1.597  -0.745  1.00  0.00     0.054 A 
ATOM     16  C   UNL     1       2.878   0.841   1.293  1.00  0.00     0.007 A 
ATOM     17  C   UNL     1       3.077   1.882  -1.287  1.00  0.00     0.127 A 
ATOM     18  C   UNL     1       4.131   1.125   0.750  1.00  0.00     0.004 A 
ATOM     19  C   UNL     1       4.230   1.646  -0.540  1.00  0.00     0.047 A 
BRANCH  17  20
ATOM     20  O   UNL     1       3.174   2.391  -2.546  1.00  0.00    -0.457 OA
BRANCH  20  21
ATOM     21  C   UNL     1       2.000   2.729  -3.197  1.00  0.00     0.127 A 
ATOM     22  C   UNL     1       1.494   1.875  -4.161  1.00  0.00     0.047 A 
ATOM     23  C   UNL     1       1.363   3.911  -2.867  1.00  0.00     0.047 A 
ATOM     24  C   UNL     1       0.312   2.216  -4.816  1.00  0.00     0.004 A 
ATOM     25  C   UNL     1       0.180   4.252  -3.523  1.00  0.00     0.004 A 
ATOM     26  C   UNL     1      -0.346   3.403  -4.498  1.00  0.00     0.000 A 
ENDBRANCH  20  21
ENDBRANCH  17  20
ENDBRANCH   1  14
TORSDOF 7
ENDMDL
MODEL 7
REMARK VINA RESULT:    -6.624      4.446      6.301
REMARK INTER + INTRA:         -11.493
REMARK INTER:                  -8.712
REMARK INTRA:                  -2.782
REMARK CONF_INDEPENDENT:        2.088
REMARK UNBOUND:                -2.782
REMARK SMILES CC1(C)[C@H](C=C(Cl)Cl)[C@H]1C(=O)OCc1cccc(Oc2ccccc2)c1
REMARK SMILES IDX 13 1 12 2 10 3 11 4 9 5 4 6 2 7 1 8 3 9 5 10 7 11 6 12 8 13
REMARK SMILES IDX 14 14 26 15 15 16 18 17 16 18 17 19 19 20 20 21 21 22 25 23
REMARK SMILES IDX 22 24 24 25 23 26
REMARK H PARENT
REMARK Flexibility Score: inf
ROOT
ATOM      1  C   UNL     1       0.924   5.731  -2.369  1.00  0.00     0.268 C 
ENDROOT
BRANCH   1   2
ATOM      2  O   UNL     1       0.440   5.269  -1.114  1.00  0.00    -0.461 OA
BRANCH   2   3
ATOM      3  C   UNL     1      -0.814   4.733  -1.122  1.00  0.00     0.310 C 
ATOM      4  O   UNL     1      -1.834   5.271  -1.529  1.00  0.00    -0.252 OA
BRANCH   3   5
ATOM      5  C   UNL     1      -0.832   3.358  -0.562  1.00  0.00     0.113 C 
ATOM      6  C   UNL     1      -1.892   2.414  -1.032  1.00  0.00     0.035 C 
ATOM      7  C   UNL     1      -1.925   2.943   0.372  1.00  0.00    -0.014 C 
ATOM      8  C   UNL     1      -1.625   1.984   1.474  1.00  0.00     0.012 C 
ATOM      9  C   UNL     1      -2.926   3.982   0.750  1.00  0.00     0.012 C 
BRANCH   6  10
ATOM     10  C   UNL     1      -1.519   1.030  -1.290  1.00  0.00     0.011 C 
ATOM     11  Cl  UNL     1      -0.434   1.536  -3.704  1.00  0.00    -0.071 Cl
ATOM     12  C   UNL     1      -0.902   0.537  -2.375  1.00  0.00     0.103 C 
ATOM     13  Cl  UNL     1      -0.548  -1.151  -2.488  1.00  0.00    -0.071 Cl
ENDBRANCH   6  10
ENDBRANCH   3   5
ENDBRANCH   2   3
ENDBRANCH   1   2
BRANCH   1  14
ATOM     14  C   UNL     1       1.678   4.636  -3.045  1.00  0.00    -0.007 A 
ATOM     15  C   UNL     1       2.249   3.613  -2.287  1.00  0.00     0.054 A 
ATOM     16  C   UNL     1       1.810   4.634  -4.433  1.00  0.00     0.007 A 
ATOM     17  C   UNL     1       2.954   2.589  -2.920  1.00  0.00     0.127 A 
ATOM     18  C   UNL     1       2.516   3.610  -5.065  1.00  0.00     0.004 A 
ATOM     19  C   UNL     1       3.087   2.587  -4.308  1.00  0.00     0.047 A 
BRANCH  17  20
ATOM     20  O   UNL     1       3.512   1.591  -2.181  1.00  0.00    -0.457 OA
BRANCH  20  21
ATOM     21  C   UNL     1       3.215   1.545  -0.830  1.00  0.00     0.127 A 
ATOM     22  C   UNL     1       4.183   1.922   0.085  1.00  0.00     0.047 A 
ATOM     23  C   UNL     1       1.961   1.125  -0.429  1.00  0.00     0.047 A 
ATOM     24  C   UNL     1       3.884   1.876   1.446  1.00  0.00     0.004 A 
ATOM     25  C   UNL     1       1.662   1.080   0.933  1.00  0.00     0.004 A 
ATOM     26  C   UNL     1       2.623   1.456   1.871  1.00  0.00     0.000 A 
ENDBRANCH  20  21
ENDBRANCH  17  20
ENDBRANCH   1  14
TORSDOF 7
ENDMDL
MODEL 8
REMARK VINA RESULT:    -6.587      2.638      6.143
REMARK INTER + INTRA:         -11.571
REMARK INTER:                  -8.675
REMARK INTRA:                  -2.896
REMARK CONF_INDEPENDENT:        2.088
REMARK UNBOUND:                -2.896
REMARK SMILES CC1(C)[C@H](C=C(Cl)Cl)[C@H]1C(=O)OCc1cccc(Oc2ccccc2)c1
REMARK SMILES IDX 13 1 12 2 10 3 11 4 9 5 4 6 2 7 1 8 3 9 5 10 7 11 6 12 8 13
REMARK SMILES IDX 14 14 26 15 15 16 18 17 16 18 17 19 19 20 20 21 21 22 25 23
REMARK SMILES IDX 22 24 24 25 23 26
REMARK H PARENT
REMARK Flexibility Score: inf
ROOT
ATOM      1  C   UNL     1       0.178   1.030   0.733  1.00  0.00     0.268 C 
ENDROOT
BRANCH   1   2
ATOM      2  O   UNL     1      -0.551   2.176   1.153  1.00  0.00    -0.461 OA
BRANCH   2   3
ATOM      3  C   UNL     1      -1.841   1.952   1.539  1.00  0.00     0.310 C 
ATOM      4  O   UNL     1      -2.212   1.510   2.618  1.00  0.00    -0.252 OA
BRANCH   3   5
ATOM      5  C   UNL     1      -2.809   2.313   0.473  1.00  0.00     0.113 C 
ATOM      6  C   UNL     1      -2.288   2.977  -0.762  1.00  0.00     0.035 C 
ATOM      7  C   UNL     1      -3.131   3.750   0.210  1.00  0.00    -0.014 C 
ATOM      8  C   UNL     1      -4.508   4.126  -0.224  1.00  0.00     0.012 C 
ATOM      9  C   UNL     1      -2.496   4.764   1.100  1.00  0.00     0.012 C 
BRANCH   6  10
ATOM     10  C   UNL     1      -2.834   2.566  -2.048  1.00  0.00     0.011 C 
ATOM     11  Cl  UNL     1      -2.416   4.945  -3.241  1.00  0.00    -0.071 Cl
ATOM     12  C   UNL     1      -2.942   3.302  -3.164  1.00  0.00     0.103 C 
ATOM     13  Cl  UNL     1      -3.629   2.621  -4.598  1.00  0.00    -0.071 Cl
ENDBRANCH   6  10
ENDBRANCH   3   5
ENDBRANCH   2   3
ENDBRANCH   1   2
BRANCH   1  14
ATOM     14  C   UNL     1       0.119   0.922  -0.753  1.00  0.00    -0.007 A 
ATOM     15  C   UNL     1      -0.604  -0.111  -1.349  1.00  0.00     0.054 A 
ATOM     16  C   UNL     1       0.787   1.854  -1.547  1.00  0.00     0.007 A 
ATOM     17  C   UNL     1      -0.659  -0.212  -2.739  1.00  0.00     0.127 A 
ATOM     18  C   UNL     1       0.733   1.753  -2.937  1.00  0.00     0.004 A 
ATOM     19  C   UNL     1       0.009   0.720  -3.533  1.00  0.00     0.047 A 
BRANCH  17  20
ATOM     20  O   UNL     1      -1.364  -1.220  -3.322  1.00  0.00    -0.457 OA
BRANCH  20  21
ATOM     21  C   UNL     1      -2.689  -0.978  -3.641  1.00  0.00     0.127 A 
ATOM     22  C   UNL     1      -3.076  -0.993  -4.970  1.00  0.00     0.047 A 
ATOM     23  C   UNL     1      -3.593  -0.728  -2.625  1.00  0.00     0.047 A 
ATOM     24  C   UNL     1      -4.410  -0.750  -5.291  1.00  0.00     0.004 A 
ATOM     25  C   UNL     1      -4.929  -0.484  -2.948  1.00  0.00     0.004 A 
ATOM     26  C   UNL     1      -5.337  -0.496  -4.281  1.00  0.00     0.000 A 
ENDBRANCH  20  21
ENDBRANCH  17  20
ENDBRANCH   1  14
TORSDOF 7
ENDMDL
MODEL 9
REMARK VINA RESULT:    -6.435      3.149      6.861
REMARK INTER + INTRA:         -11.533
REMARK INTER:                  -8.523
REMARK INTRA:                  -3.010
REMARK CONF_INDEPENDENT:        2.088
REMARK UNBOUND:                -3.010
REMARK SMILES CC1(C)[C@H](C=C(Cl)Cl)[C@H]1C(=O)OCc1cccc(Oc2ccccc2)c1
REMARK SMILES IDX 13 1 12 2 10 3 11 4 9 5 4 6 2 7 1 8 3 9 5 10 7 11 6 12 8 13
REMARK SMILES IDX 14 14 26 15 15 16 18 17 16 18 17 19 19 20 20 21 21 22 25 23
REMARK SMILES IDX 22 24 24 25 23 26
REMARK H PARENT
REMARK Flexibility Score: inf
ROOT
ATOM      1  C   UNL     1       1.875   4.500  -2.674  1.00  0.00     0.268 C 
ENDROOT
BRANCH   1   2
ATOM      2  O   UNL     1       1.655   3.838  -1.434  1.00  0.00    -0.461 OA
BRANCH   2   3
ATOM      3  C   UNL     1       2.122   2.559  -1.353  1.00  0.00     0.310 C 
ATOM      4  O   UNL     1       3.289   2.202  -1.438  1.00  0.00    -0.252 OA
BRANCH   3   5
ATOM      5  C   UNL     1       1.025   1.582  -1.139  1.00  0.00     0.113 C 
ATOM      6  C   UNL     1       0.039   1.851  -0.047  1.00  0.00     0.035 C 
ATOM      7  C   UNL     1       1.017   0.720   0.083  1.00  0.00    -0.014 C 
ATOM      8  C   UNL     1       0.476  -0.668  -0.000  1.00  0.00     0.012 C 
ATOM      9  C   UNL     1       2.177   0.846   1.012  1.00  0.00     0.012 C 
BRANCH   6  10
ATOM     10  C   UNL     1      -1.368   1.583  -0.307  1.00  0.00     0.011 C 
ATOM     11  Cl  UNL     1      -1.829   3.947  -1.515  1.00  0.00    -0.071 Cl
ATOM     12  C   UNL     1      -2.256   2.384  -0.916  1.00  0.00     0.103 C 
ATOM     13  Cl  UNL     1      -3.895   1.875  -1.125  1.00  0.00    -0.071 Cl
ENDBRANCH   6  10
ENDBRANCH   3   5
ENDBRANCH   2   3
ENDBRANCH   1   2
BRANCH   1  14
ATOM     14  C   UNL     1       1.690   3.532  -3.793  1.00  0.00    -0.007 A 
ATOM     15  C   UNL     1       0.431   2.986  -4.042  1.00  0.00     0.054 A 
ATOM     16  C   UNL     1       2.777   3.173  -4.591  1.00  0.00     0.007 A 
ATOM     17  C   UNL     1       0.259   2.081  -5.090  1.00  0.00     0.127 A 
ATOM     18  C   UNL     1       2.604   2.268  -5.637  1.00  0.00     0.004 A 
ATOM     19  C   UNL     1       1.345   1.722  -5.887  1.00  0.00     0.047 A 
BRANCH  17  20
ATOM     20  O   UNL     1      -0.970   1.549  -5.333  1.00  0.00    -0.457 OA
BRANCH  20  21
ATOM     21  C   UNL     1      -1.408   0.532  -4.502  1.00  0.00     0.127 A 
ATOM     22  C   UNL     1      -2.760   0.241  -4.449  1.00  0.00     0.047 A 
ATOM     23  C   UNL     1      -0.485  -0.167  -3.747  1.00  0.00     0.047 A 
ATOM     24  C   UNL     1      -3.201  -0.783  -3.612  1.00  0.00     0.004 A 
ATOM     25  C   UNL     1      -0.927  -1.192  -2.910  1.00  0.00     0.004 A 
ATOM     26  C   UNL     1      -2.285  -1.500  -2.843  1.00  0.00     0.000 A 
ENDBRANCH  20  21
ENDBRANCH  17  20
ENDBRANCH   1  14
TORSDOF 7
ENDMDL
