MODEL 1
REMARK VINA RESULT:    -6.615      0.000      0.000
REMARK INTER + INTRA:         -12.493
REMARK INTER:                  -9.323
REMARK INTRA:                  -3.171
REMARK UNBOUND:                -3.171
REMARK SMILES CC1(C)[C@H](C=C(Cl)Cl)[C@H]1C(=O)OCc1cccc(Oc2ccccc2)c1
REMARK SMILES IDX 13 1 12 2 10 3 11 4 9 5 4 6 2 7 1 8 3 9 5 10 7 11 6 12 8 13
REMARK SMILES IDX 14 14 26 15 15 16 18 17 16 18 17 19 19 20 20 21 21 22 25 23
REMARK SMILES IDX 22 24 24 25 23 26
REMARK H PARENT
REMARK Flexibility Score: inf
ROOT
ATOM      1  C   UNL     1      -0.371   6.667  -3.345  1.00  0.00     0.268 C 
ENDROOT
BRANCH   1   2
ATOM      2  O   UNL     1      -0.186   5.300  -3.000  1.00  0.00    -0.461 OA
BRANCH   2   3
ATOM      3  C   UNL     1       0.095   5.051  -1.688  1.00  0.00     0.310 C 
ATOM      4  O   UNL     1       0.724   5.773  -0.928  1.00  0.00    -0.252 OA
BRANCH   3   5
ATOM      5  C   UNL     1      -0.464   3.750  -1.241  1.00  0.00     0.113 C 
ATOM      6  C   UNL     1      -1.621   3.177  -1.996  1.00  0.00     0.035 C 
ATOM      7  C   UNL     1      -1.815   3.696  -0.601  1.00  0.00    -0.014 C 
ATOM      8  C   UNL     1      -2.079   2.694   0.472  1.00  0.00     0.012 C 
ATOM      9  C   UNL     1      -2.517   4.994  -0.383  1.00  0.00     0.012 C 
BRANCH   6  10
ATOM     10  C   UNL     1      -1.632   1.745  -2.259  1.00  0.00     0.011 C 
ATOM     11  Cl  UNL     1      -0.008   1.898  -4.403  1.00  0.00    -0.071 Cl
ATOM     12  C   UNL     1      -0.994   1.088  -3.240  1.00  0.00     0.103 C 
ATOM     13  Cl  UNL     1      -1.141  -0.629  -3.381  1.00  0.00    -0.071 Cl
ENDBRANCH   6  10
ENDBRANCH   3   5
ENDBRANCH   2   3
ENDBRANCH   1   2
BRANCH   1  14
ATOM     14  C   UNL     1      -1.811   7.027  -3.194  1.00  0.00    -0.007 A 
ATOM     15  C   UNL     1      -2.796   6.200  -3.735  1.00  0.00     0.054 A 
ATOM     16  C   UNL     1      -2.172   8.188  -2.512  1.00  0.00     0.007 A 
ATOM     17  C   UNL     1      -4.142   6.537  -3.594  1.00  0.00     0.127 A 
ATOM     18  C   UNL     1      -3.518   8.525  -2.372  1.00  0.00     0.004 A 
ATOM     19  C   UNL     1      -4.503   7.698  -2.913  1.00  0.00     0.047 A 
BRANCH  17  20
ATOM     20  O   UNL     1      -5.104   5.731  -4.122  1.00  0.00    -0.457 OA
BRANCH  20  21
ATOM     21  C   UNL     1      -5.110   4.400  -3.741  1.00  0.00     0.127 A 
ATOM     22  C   UNL     1      -4.745   3.434  -4.663  1.00  0.00     0.047 A 
ATOM     23  C   UNL     1      -5.479   4.069  -2.451  1.00  0.00     0.047 A 
ATOM     24  C   UNL     1      -4.751   2.094  -4.280  1.00  0.00     0.004 A 
ATOM     25  C   UNL     1      -5.484   2.728  -2.067  1.00  0.00     0.004 A 
ATOM     26  C   UNL     1      -5.120   1.740  -2.982  1.00  0.00     0.000 A 
ENDBRANCH  20  21
ENDBRANCH  17  20
ENDBRANCH   1  14
TORSDOF 7
ENDMDL
MODEL 2
REMARK VINA RESULT:    -6.377      2.508      4.974
REMARK INTER + INTRA:         -12.157
REMARK INTER:                  -9.999
REMARK INTRA:                  -2.158
REMARK UNBOUND:                -3.171
REMARK SMILES CC1(C)[C@H](C=C(Cl)Cl)[C@H]1C(=O)OCc1cccc(Oc2ccccc2)c1
REMARK SMILES IDX 13 1 12 2 10 3 11 4 9 5 4 6 2 7 1 8 3 9 5 10 7 11 6 12 8 13
REMARK SMILES IDX 14 14 26 15 15 16 18 17 16 18 17 19 19 20 20 21 21 22 25 23
REMARK SMILES IDX 22 24 24 25 23 26
REMARK H PARENT
REMARK Flexibility Score: inf
ROOT
ATOM      1  C   UNL     1       1.215   3.699  -2.117  1.00  0.00     0.268 C 
ENDROOT
BRANCH   1   2
ATOM      2  O   UNL     1       0.275   4.707  -2.464  1.00  0.00    -0.461 OA
BRANCH   2   3
ATOM      3  C   UNL     1       0.090   5.692  -1.537  1.00  0.00     0.310 C 
ATOM      4  O   UNL     1       0.948   6.189  -0.821  1.00  0.00    -0.252 OA
BRANCH   3   5
ATOM      5  C   UNL     1      -1.326   6.132  -1.472  1.00  0.00     0.113 C 
ATOM      6  C   UNL     1      -2.201   5.885  -2.661  1.00  0.00     0.035 C 
ATOM      7  C   UNL     1      -1.792   7.284  -2.305  1.00  0.00    -0.014 C 
ATOM      8  C   UNL     1      -2.848   8.194  -1.774  1.00  0.00     0.012 C 
ATOM      9  C   UNL     1      -0.764   7.988  -3.126  1.00  0.00     0.012 C 
BRANCH   6  10
ATOM     10  C   UNL     1      -3.566   5.435  -2.431  1.00  0.00     0.011 C 
ATOM     11  Cl  UNL     1      -2.845   3.140  -1.217  1.00  0.00    -0.071 Cl
ATOM     12  C   UNL     1      -3.965   4.300  -1.835  1.00  0.00     0.103 C 
ATOM     13  Cl  UNL     1      -5.649   3.949  -1.662  1.00  0.00    -0.071 Cl
ENDBRANCH   6  10
ENDBRANCH   3   5
ENDBRANCH   2   3
ENDBRANCH   1   2
BRANCH   1  14
ATOM     14  C   UNL     1       0.527   2.377  -2.057  1.00  0.00    -0.007 A 
ATOM     15  C   UNL     1      -0.107   1.869  -3.191  1.00  0.00     0.054 A 
ATOM     16  C   UNL     1       0.519   1.649  -0.867  1.00  0.00     0.007 A 
ATOM     17  C   UNL     1      -0.750   0.633  -3.134  1.00  0.00     0.127 A 
ATOM     18  C   UNL     1      -0.125   0.413  -0.811  1.00  0.00     0.004 A 
ATOM     19  C   UNL     1      -0.759  -0.095  -1.945  1.00  0.00     0.047 A 
BRANCH  17  20
ATOM     20  O   UNL     1      -1.369   0.137  -4.240  1.00  0.00    -0.457 OA
BRANCH  20  21
ATOM     21  C   UNL     1      -2.752   0.191  -4.284  1.00  0.00     0.127 A 
ATOM     22  C   UNL     1      -3.377   1.425  -4.327  1.00  0.00     0.047 A 
ATOM     23  C   UNL     1      -3.473  -0.988  -4.282  1.00  0.00     0.047 A 
ATOM     24  C   UNL     1      -4.769   1.480  -4.371  1.00  0.00     0.004 A 
ATOM     25  C   UNL     1      -4.867  -0.933  -4.326  1.00  0.00     0.004 A 
ATOM     26  C   UNL     1      -5.514   0.301  -4.371  1.00  0.00     0.000 A 
ENDBRANCH  20  21
ENDBRANCH  17  20
ENDBRANCH   1  14
TORSDOF 7
ENDMDL
MODEL 3
REMARK VINA RESULT:    -6.329      2.827      5.970
REMARK INTER + INTRA:         -12.090
REMARK INTER:                  -9.187
REMARK INTRA:                  -2.903
REMARK UNBOUND:                -3.171
REMARK SMILES CC1(C)[C@H](C=C(Cl)Cl)[C@H]1C(=O)OCc1cccc(Oc2ccccc2)c1
REMARK SMILES IDX 13 1 12 2 10 3 11 4 9 5 4 6 2 7 1 8 3 9 5 10 7 11 6 12 8 13
REMARK SMILES IDX 14 14 26 15 15 16 18 17 16 18 17 19 19 20 20 21 21 22 25 23
REMARK SMILES IDX 22 24 24 25 23 26
REMARK H PARENT
REMARK Flexibility Score: inf
ROOT
ATOM      1  C   UNL     1      -5.123   2.827  -4.623  1.00  0.00     0.268 C 
ENDROOT
BRANCH   1   2
ATOM      2  O   UNL     1      -4.412   3.878  -3.981  1.00  0.00    -0.461 OA
BRANCH   2   3
ATOM      3  C   UNL     1      -4.904   4.276  -2.772  1.00  0.00     0.310 C 
ATOM      4  O   UNL     1      -6.054   4.151  -2.376  1.00  0.00    -0.252 OA
BRANCH   3   5
ATOM      5  C   UNL     1      -3.858   4.910  -1.930  1.00  0.00     0.113 C 
ATOM      6  C   UNL     1      -2.424   4.619  -2.243  1.00  0.00     0.035 C 
ATOM      7  C   UNL     1      -3.046   4.076  -0.990  1.00  0.00    -0.014 C 
ATOM      8  C   UNL     1      -2.597   4.659   0.308  1.00  0.00     0.012 C 
ATOM      9  C   UNL     1      -3.387   2.627  -0.899  1.00  0.00     0.012 C 
BRANCH   6  10
ATOM     10  C   UNL     1      -1.468   5.715  -2.176  1.00  0.00     0.011 C 
ATOM     11  Cl  UNL     1      -2.214   6.808  -4.523  1.00  0.00    -0.071 Cl
ATOM     12  C   UNL     1      -1.285   6.697  -3.072  1.00  0.00     0.103 C 
ATOM     13  Cl  UNL     1      -0.084   7.913  -2.804  1.00  0.00    -0.071 Cl
ENDBRANCH   6  10
ENDBRANCH   3   5
ENDBRANCH   2   3
ENDBRANCH   1   2
BRANCH   1  14
ATOM     14  C   UNL     1      -4.391   1.542  -4.431  1.00  0.00    -0.007 A 
ATOM     15  C   UNL     1      -3.007   1.548  -4.255  1.00  0.00     0.054 A 
ATOM     16  C   UNL     1      -5.090   0.335  -4.427  1.00  0.00     0.007 A 
ATOM     17  C   UNL     1      -2.323   0.346  -4.075  1.00  0.00     0.127 A 
ATOM     18  C   UNL     1      -4.405  -0.866  -4.248  1.00  0.00     0.004 A 
ATOM     19  C   UNL     1      -3.022  -0.860  -4.071  1.00  0.00     0.047 A 
BRANCH  17  20
ATOM     20  O   UNL     1      -0.972   0.351  -3.903  1.00  0.00    -0.457 OA
BRANCH  20  21
ATOM     21  C   UNL     1      -0.478   0.823  -2.699  1.00  0.00     0.127 A 
ATOM     22  C   UNL     1       0.096   2.082  -2.654  1.00  0.00     0.047 A 
ATOM     23  C   UNL     1      -0.570   0.026  -1.573  1.00  0.00     0.047 A 
ATOM     24  C   UNL     1       0.594   2.558  -1.442  1.00  0.00     0.004 A 
ATOM     25  C   UNL     1      -0.071   0.503  -0.360  1.00  0.00     0.004 A 
ATOM     26  C   UNL     1       0.510   1.769  -0.295  1.00  0.00     0.000 A 
ENDBRANCH  20  21
ENDBRANCH  17  20
ENDBRANCH   1  14
TORSDOF 7
ENDMDL
MODEL 4
REMARK VINA RESULT:    -6.316      2.255      4.569
REMARK INTER + INTRA:         -12.072
REMARK INTER:                  -9.887
REMARK INTRA:                  -2.185
REMARK UNBOUND:                -3.171
REMARK SMILES CC1(C)[C@H](C=C(Cl)Cl)[C@H]1C(=O)OCc1cccc(Oc2ccccc2)c1
REMARK SMILES IDX 13 1 12 2 10 3 11 4 9 5 4 6 2 7 1 8 3 9 5 10 7 11 6 12 8 13
REMARK SMILES IDX 14 14 26 15 15 16 18 17 16 18 17 19 19 20 20 21 21 22 25 23
REMARK SMILES IDX 22 24 24 25 23 26
REMARK H PARENT
REMARK Flexibility Score: inf
ROOT
ATOM      1  C   UNL     1      -4.501   1.993  -4.166  1.00  0.00     0.268 C 
ENDROOT
BRANCH   1   2
ATOM      2  O   UNL     1      -3.117   2.019  -3.840  1.00  0.00    -0.461 OA
BRANCH   2   3
ATOM      3  C   UNL     1      -2.789   1.558  -2.599  1.00  0.00     0.310 C 
ATOM      4  O   UNL     1      -3.313   0.625  -2.006  1.00  0.00    -0.252 OA
BRANCH   3   5
ATOM      5  C   UNL     1      -1.676   2.335  -1.996  1.00  0.00     0.113 C 
ATOM      6  C   UNL     1      -1.332   2.084  -0.562  1.00  0.00     0.035 C 
ATOM      7  C   UNL     1      -1.964   3.383  -0.969  1.00  0.00    -0.014 C 
ATOM      8  C   UNL     1      -1.114   4.608  -0.912  1.00  0.00     0.012 C 
ATOM      9  C   UNL     1      -3.396   3.644  -0.646  1.00  0.00     0.012 C 
BRANCH   6  10
ATOM     10  C   UNL     1       0.075   2.034  -0.190  1.00  0.00     0.011 C 
ATOM     11  Cl  UNL     1       0.215  -0.657  -0.204  1.00  0.00    -0.071 Cl
ATOM     12  C   UNL     1       0.835   0.943  -0.009  1.00  0.00     0.103 C 
ATOM     13  Cl  UNL     1       2.498   1.100   0.438  1.00  0.00    -0.071 Cl
ENDBRANCH   6  10
ENDBRANCH   3   5
ENDBRANCH   2   3
ENDBRANCH   1   2
BRANCH   1  14
ATOM     14  C   UNL     1      -5.167   3.202  -3.602  1.00  0.00    -0.007 A 
ATOM     15  C   UNL     1      -4.707   4.474  -3.943  1.00  0.00     0.054 A 
ATOM     16  C   UNL     1      -6.250   3.061  -2.734  1.00  0.00     0.007 A 
ATOM     17  C   UNL     1      -5.330   5.605  -3.416  1.00  0.00     0.127 A 
ATOM     18  C   UNL     1      -6.872   4.192  -2.207  1.00  0.00     0.004 A 
ATOM     19  C   UNL     1      -6.412   5.464  -2.548  1.00  0.00     0.047 A 
BRANCH  17  20
ATOM     20  O   UNL     1      -4.882   6.847  -3.748  1.00  0.00    -0.457 OA
BRANCH  20  21
ATOM     21  C   UNL     1      -3.645   7.236  -3.263  1.00  0.00     0.127 A 
ATOM     22  C   UNL     1      -3.552   7.727  -1.972  1.00  0.00     0.047 A 
ATOM     23  C   UNL     1      -2.535   7.126  -4.080  1.00  0.00     0.047 A 
ATOM     24  C   UNL     1      -2.307   8.119  -1.483  1.00  0.00     0.004 A 
ATOM     25  C   UNL     1      -1.289   7.519  -3.589  1.00  0.00     0.004 A 
ATOM     26  C   UNL     1      -1.175   8.015  -2.291  1.00  0.00     0.000 A 
ENDBRANCH  20  21
ENDBRANCH  17  20
ENDBRANCH   1  14
TORSDOF 7
ENDMDL
MODEL 5
REMARK VINA RESULT:    -6.290      3.045      5.494
REMARK INTER + INTRA:         -12.035
REMARK INTER:                 -10.605
REMARK INTRA:                  -1.430
REMARK UNBOUND:                -3.171
REMARK SMILES CC1(C)[C@H](C=C(Cl)Cl)[C@H]1C(=O)OCc1cccc(Oc2ccccc2)c1
REMARK SMILES IDX 13 1 12 2 10 3 11 4 9 5 4 6 2 7 1 8 3 9 5 10 7 11 6 12 8 13
REMARK SMILES IDX 14 14 26 15 15 16 18 17 16 18 17 19 19 20 20 21 21 22 25 23
REMARK SMILES IDX 22 24 24 25 23 26
REMARK H PARENT
REMARK Flexibility Score: inf
ROOT
ATOM      1  C   UNL     1       1.268   3.404  -2.181  1.00  0.00     0.268 C 
ENDROOT
BRANCH   1   2
ATOM      2  O   UNL     1       0.224   4.242  -2.658  1.00  0.00    -0.461 OA
BRANCH   2   3
ATOM      3  C   UNL     1      -0.200   5.212  -1.797  1.00  0.00     0.310 C 
ATOM      4  O   UNL     1       0.464   5.752  -0.923  1.00  0.00    -0.252 OA
BRANCH   3   5
ATOM      5  C   UNL     1      -1.621   5.575  -2.029  1.00  0.00     0.113 C 
ATOM      6  C   UNL     1      -2.318   6.407  -0.999  1.00  0.00     0.035 C 
ATOM      7  C   UNL     1      -2.697   4.967  -1.186  1.00  0.00    -0.014 C 
ATOM      8  C   UNL     1      -4.031   4.681  -1.790  1.00  0.00     0.012 C 
ATOM      9  C   UNL     1      -2.278   3.953  -0.176  1.00  0.00     0.012 C 
BRANCH   6  10
ATOM     10  C   UNL     1      -3.205   7.468  -1.455  1.00  0.00     0.011 C 
ATOM     11  Cl  UNL     1      -1.497   8.405  -3.317  1.00  0.00    -0.071 Cl
ATOM     12  C   UNL     1      -2.973   8.371  -2.421  1.00  0.00     0.103 C 
ATOM     13  Cl  UNL     1      -4.166   9.560  -2.811  1.00  0.00    -0.071 Cl
ENDBRANCH   6  10
ENDBRANCH   3   5
ENDBRANCH   2   3
ENDBRANCH   1   2
BRANCH   1  14
ATOM     14  C   UNL     1       0.693   2.109  -1.718  1.00  0.00    -0.007 A 
ATOM     15  C   UNL     1      -0.077   1.337  -2.589  1.00  0.00     0.054 A 
ATOM     16  C   UNL     1       0.926   1.668  -0.416  1.00  0.00     0.007 A 
ATOM     17  C   UNL     1      -0.614   0.125  -2.156  1.00  0.00     0.127 A 
ATOM     18  C   UNL     1       0.389   0.456   0.017  1.00  0.00     0.004 A 
ATOM     19  C   UNL     1      -0.381  -0.315  -0.853  1.00  0.00     0.047 A 
BRANCH  17  20
ATOM     20  O   UNL     1      -1.366  -0.628  -3.005  1.00  0.00    -0.457 OA
BRANCH  20  21
ATOM     21  C   UNL     1      -2.687  -0.262  -3.193  1.00  0.00     0.127 A 
ATOM     22  C   UNL     1      -3.441  -0.925  -4.146  1.00  0.00     0.047 A 
ATOM     23  C   UNL     1      -3.221   0.756  -2.425  1.00  0.00     0.047 A 
ATOM     24  C   UNL     1      -4.772  -0.557  -4.335  1.00  0.00     0.004 A 
ATOM     25  C   UNL     1      -4.554   1.124  -2.614  1.00  0.00     0.004 A 
ATOM     26  C   UNL     1      -5.329   0.467  -3.569  1.00  0.00     0.000 A 
ENDBRANCH  20  21
ENDBRANCH  17  20
ENDBRANCH   1  14
TORSDOF 7
ENDMDL
