MODEL 1
REMARK VINA RESULT:    -6.575      0.000      0.000
REMARK INTER + INTRA:         -12.448
REMARK INTER:                  -9.265
REMARK INTRA:                  -3.182
REMARK UNBOUND:                -3.182
REMARK SMILES CC1(C)[C@H](C=C(Cl)Cl)[C@H]1C(=O)OCc1cccc(Oc2ccccc2)c1
REMARK SMILES IDX 13 1 12 2 10 3 11 4 9 5 4 6 2 7 1 8 3 9 5 10 7 11 6 12 8 13
REMARK SMILES IDX 14 14 26 15 15 16 18 17 16 18 17 19 19 20 20 21 21 22 25 23
REMARK SMILES IDX 22 24 24 25 23 26
REMARK H PARENT
REMARK Flexibility Score: inf
ROOT
ATOM      1  C   UNL     1      -0.354   6.823  -3.292  1.00  0.00     0.268 C 
ENDROOT
BRANCH   1   2
ATOM      2  O   UNL     1      -0.172   5.442  -3.009  1.00  0.00    -0.461 OA
BRANCH   2   3
ATOM      3  C   UNL     1       0.104   5.134  -1.708  1.00  0.00     0.310 C 
ATOM      4  O   UNL     1       0.750   5.811  -0.921  1.00  0.00    -0.252 OA
BRANCH   3   5
ATOM      5  C   UNL     1      -0.484   3.830  -1.311  1.00  0.00     0.113 C 
ATOM      6  C   UNL     1      -1.658   3.317  -2.083  1.00  0.00     0.035 C 
ATOM      7  C   UNL     1      -1.833   3.781  -0.667  1.00  0.00    -0.014 C 
ATOM      8  C   UNL     1      -2.116   2.742   0.366  1.00  0.00     0.012 C 
ATOM      9  C   UNL     1      -2.502   5.085  -0.391  1.00  0.00     0.012 C 
BRANCH   6  10
ATOM     10  C   UNL     1      -1.705   1.898  -2.405  1.00  0.00     0.011 C 
ATOM     11  Cl  UNL     1       0.030   2.075  -4.458  1.00  0.00    -0.071 Cl
ATOM     12  C   UNL     1      -1.042   1.257  -3.380  1.00  0.00     0.103 C 
ATOM     13  Cl  UNL     1      -1.241  -0.447  -3.599  1.00  0.00    -0.071 Cl
ENDBRANCH   6  10
ENDBRANCH   3   5
ENDBRANCH   2   3
ENDBRANCH   1   2
BRANCH   1  14
ATOM     14  C   UNL     1      -1.792   7.180  -3.122  1.00  0.00    -0.007 A 
ATOM     15  C   UNL     1      -2.781   6.382  -3.698  1.00  0.00     0.054 A 
ATOM     16  C   UNL     1      -2.148   8.310  -2.387  1.00  0.00     0.007 A 
ATOM     17  C   UNL     1      -4.126   6.716  -3.538  1.00  0.00     0.127 A 
ATOM     18  C   UNL     1      -3.493   8.644  -2.228  1.00  0.00     0.004 A 
ATOM     19  C   UNL     1      -4.482   7.846  -2.803  1.00  0.00     0.047 A 
BRANCH  17  20
ATOM     20  O   UNL     1      -5.092   5.937  -4.100  1.00  0.00    -0.457 OA
BRANCH  20  21
ATOM     21  C   UNL     1      -5.143   4.605  -3.727  1.00  0.00     0.127 A 
ATOM     22  C   UNL     1      -4.837   3.632  -4.663  1.00  0.00     0.047 A 
ATOM     23  C   UNL     1      -5.499   4.280  -2.432  1.00  0.00     0.047 A 
ATOM     24  C   UNL     1      -4.888   2.290  -4.288  1.00  0.00     0.004 A 
ATOM     25  C   UNL     1      -5.550   2.937  -2.057  1.00  0.00     0.004 A 
ATOM     26  C   UNL     1      -5.244   1.942  -2.986  1.00  0.00     0.000 A 
ENDBRANCH  20  21
ENDBRANCH  17  20
ENDBRANCH   1  14
TORSDOF 7
ENDMDL
MODEL 2
REMARK VINA RESULT:    -6.497      3.411      5.435
REMARK INTER + INTRA:         -12.338
REMARK INTER:                 -10.221
REMARK INTRA:                  -2.117
REMARK UNBOUND:                -3.182
REMARK SMILES CC1(C)[C@H](C=C(Cl)Cl)[C@H]1C(=O)OCc1cccc(Oc2ccccc2)c1
REMARK SMILES IDX 13 1 12 2 10 3 11 4 9 5 4 6 2 7 1 8 3 9 5 10 7 11 6 12 8 13
REMARK SMILES IDX 14 14 26 15 15 16 18 17 16 18 17 19 19 20 20 21 21 22 25 23
REMARK SMILES IDX 22 24 24 25 23 26
REMARK H PARENT
REMARK Flexibility Score: inf
ROOT
ATOM      1  C   UNL     1      -2.823   3.712   0.147  1.00  0.00     0.268 C 
ENDROOT
BRANCH   1   2
ATOM      2  O   UNL     1      -2.392   5.047  -0.088  1.00  0.00    -0.461 OA
BRANCH   2   3
ATOM      3  C   UNL     1      -1.259   5.182  -0.837  1.00  0.00     0.310 C 
ATOM      4  O   UNL     1      -0.259   4.481  -0.777  1.00  0.00    -0.252 OA
BRANCH   3   5
ATOM      5  C   UNL     1      -1.355   6.320  -1.785  1.00  0.00     0.113 C 
ATOM      6  C   UNL     1      -2.691   6.638  -2.379  1.00  0.00     0.035 C 
ATOM      7  C   UNL     1      -1.602   6.066  -3.238  1.00  0.00    -0.014 C 
ATOM      8  C   UNL     1      -0.986   6.966  -4.256  1.00  0.00     0.012 C 
ATOM      9  C   UNL     1      -1.674   4.642  -3.677  1.00  0.00     0.012 C 
BRANCH   6  10
ATOM     10  C   UNL     1      -3.073   8.037  -2.507  1.00  0.00     0.011 C 
ATOM     11  Cl  UNL     1      -5.695   7.523  -2.851  1.00  0.00    -0.071 Cl
ATOM     12  C   UNL     1      -4.303   8.534  -2.708  1.00  0.00     0.103 C 
ATOM     13  Cl  UNL     1      -4.545  10.242  -2.836  1.00  0.00    -0.071 Cl
ENDBRANCH   6  10
ENDBRANCH   3   5
ENDBRANCH   2   3
ENDBRANCH   1   2
BRANCH   1  14
ATOM     14  C   UNL     1      -3.790   3.308  -0.914  1.00  0.00    -0.007 A 
ATOM     15  C   UNL     1      -4.887   4.119  -1.203  1.00  0.00     0.054 A 
ATOM     16  C   UNL     1      -3.595   2.120  -1.619  1.00  0.00     0.007 A 
ATOM     17  C   UNL     1      -5.790   3.740  -2.197  1.00  0.00     0.127 A 
ATOM     18  C   UNL     1      -4.498   1.741  -2.611  1.00  0.00     0.004 A 
ATOM     19  C   UNL     1      -5.596   2.552  -2.900  1.00  0.00     0.047 A 
BRANCH  17  20
ATOM     20  O   UNL     1      -6.862   4.531  -2.479  1.00  0.00    -0.457 OA
BRANCH  20  21
ATOM     21  C   UNL     1      -7.892   4.575  -1.555  1.00  0.00     0.127 A 
ATOM     22  C   UNL     1      -8.180   5.773  -0.925  1.00  0.00     0.047 A 
ATOM     23  C   UNL     1      -8.605   3.422  -1.285  1.00  0.00     0.047 A 
ATOM     24  C   UNL     1      -9.217   5.817   0.006  1.00  0.00     0.004 A 
ATOM     25  C   UNL     1      -9.643   3.468  -0.353  1.00  0.00     0.004 A 
ATOM     26  C   UNL     1      -9.949   4.666   0.292  1.00  0.00     0.000 A 
ENDBRANCH  20  21
ENDBRANCH  17  20
ENDBRANCH   1  14
TORSDOF 7
ENDMDL
MODEL 3
REMARK VINA RESULT:    -6.340      2.606      5.098
REMARK INTER + INTRA:         -12.116
REMARK INTER:                 -10.125
REMARK INTRA:                  -1.991
REMARK UNBOUND:                -3.182
REMARK SMILES CC1(C)[C@H](C=C(Cl)Cl)[C@H]1C(=O)OCc1cccc(Oc2ccccc2)c1
REMARK SMILES IDX 13 1 12 2 10 3 11 4 9 5 4 6 2 7 1 8 3 9 5 10 7 11 6 12 8 13
REMARK SMILES IDX 14 14 26 15 15 16 18 17 16 18 17 19 19 20 20 21 21 22 25 23
REMARK SMILES IDX 22 24 24 25 23 26
REMARK H PARENT
REMARK Flexibility Score: inf
ROOT
ATOM      1  C   UNL     1       1.015   3.473  -1.791  1.00  0.00     0.268 C 
ENDROOT
BRANCH   1   2
ATOM      2  O   UNL     1       0.091   4.466  -2.219  1.00  0.00    -0.461 OA
BRANCH   2   3
ATOM      3  C   UNL     1      -0.030   5.555  -1.406  1.00  0.00     0.310 C 
ATOM      4  O   UNL     1       0.864   6.086  -0.761  1.00  0.00    -0.252 OA
BRANCH   3   5
ATOM      5  C   UNL     1      -1.422   6.070  -1.373  1.00  0.00     0.113 C 
ATOM      6  C   UNL     1      -2.279   5.875  -2.584  1.00  0.00     0.035 C 
ATOM      7  C   UNL     1      -1.805   7.249  -2.210  1.00  0.00    -0.014 C 
ATOM      8  C   UNL     1      -2.825   8.211  -1.700  1.00  0.00     0.012 C 
ATOM      9  C   UNL     1      -0.722   7.901  -3.001  1.00  0.00     0.012 C 
BRANCH   6  10
ATOM     10  C   UNL     1      -3.671   5.497  -2.390  1.00  0.00     0.011 C 
ATOM     11  Cl  UNL     1      -3.105   3.074  -1.356  1.00  0.00    -0.071 Cl
ATOM     12  C   UNL     1      -4.145   4.348  -1.883  1.00  0.00     0.103 C 
ATOM     13  Cl  UNL     1      -5.849   4.093  -1.738  1.00  0.00    -0.071 Cl
ENDBRANCH   6  10
ENDBRANCH   3   5
ENDBRANCH   2   3
ENDBRANCH   1   2
BRANCH   1  14
ATOM     14  C   UNL     1       0.377   2.129  -1.885  1.00  0.00    -0.007 A 
ATOM     15  C   UNL     1      -0.237   1.729  -3.073  1.00  0.00     0.054 A 
ATOM     16  C   UNL     1       0.396   1.270  -0.786  1.00  0.00     0.007 A 
ATOM     17  C   UNL     1      -0.832   0.471  -3.160  1.00  0.00     0.127 A 
ATOM     18  C   UNL     1      -0.200   0.012  -0.874  1.00  0.00     0.004 A 
ATOM     19  C   UNL     1      -0.814  -0.387  -2.061  1.00  0.00     0.047 A 
BRANCH  17  20
ATOM     20  O   UNL     1      -1.432   0.081  -4.318  1.00  0.00    -0.457 OA
BRANCH  20  21
ATOM     21  C   UNL     1      -2.809   0.188  -4.399  1.00  0.00     0.127 A 
ATOM     22  C   UNL     1      -3.577  -0.963  -4.373  1.00  0.00     0.047 A 
ATOM     23  C   UNL     1      -3.384   1.441  -4.503  1.00  0.00     0.047 A 
ATOM     24  C   UNL     1      -4.964  -0.856  -4.454  1.00  0.00     0.004 A 
ATOM     25  C   UNL     1      -4.773   1.548  -4.583  1.00  0.00     0.004 A 
ATOM     26  C   UNL     1      -5.563   0.399  -4.558  1.00  0.00     0.000 A 
ENDBRANCH  20  21
ENDBRANCH  17  20
ENDBRANCH   1  14
TORSDOF 7
ENDMDL
MODEL 4
REMARK VINA RESULT:    -6.271      2.828      6.043
REMARK INTER + INTRA:         -12.019
REMARK INTER:                  -9.086
REMARK INTRA:                  -2.933
REMARK UNBOUND:                -3.182
REMARK SMILES CC1(C)[C@H](C=C(Cl)Cl)[C@H]1C(=O)OCc1cccc(Oc2ccccc2)c1
REMARK SMILES IDX 13 1 12 2 10 3 11 4 9 5 4 6 2 7 1 8 3 9 5 10 7 11 6 12 8 13
REMARK SMILES IDX 14 14 26 15 15 16 18 17 16 18 17 19 19 20 20 21 21 22 25 23
REMARK SMILES IDX 22 24 24 25 23 26
REMARK H PARENT
REMARK Flexibility Score: inf
ROOT
ATOM      1  C   UNL     1      -5.138   2.790  -4.615  1.00  0.00     0.268 C 
ENDROOT
BRANCH   1   2
ATOM      2  O   UNL     1      -4.399   3.808  -3.952  1.00  0.00    -0.461 OA
BRANCH   2   3
ATOM      3  C   UNL     1      -4.884   4.199  -2.737  1.00  0.00     0.310 C 
ATOM      4  O   UNL     1      -6.035   4.084  -2.341  1.00  0.00    -0.252 OA
BRANCH   3   5
ATOM      5  C   UNL     1      -3.828   4.809  -1.891  1.00  0.00     0.113 C 
ATOM      6  C   UNL     1      -2.398   4.520  -2.222  1.00  0.00     0.035 C 
ATOM      7  C   UNL     1      -3.012   3.952  -0.976  1.00  0.00    -0.014 C 
ATOM      8  C   UNL     1      -2.550   4.504   0.330  1.00  0.00     0.012 C 
ATOM      9  C   UNL     1      -3.358   2.502  -0.915  1.00  0.00     0.012 C 
BRANCH   6  10
ATOM     10  C   UNL     1      -1.437   5.610  -2.139  1.00  0.00     0.011 C 
ATOM     11  Cl  UNL     1      -2.216   6.773  -4.442  1.00  0.00    -0.071 Cl
ATOM     12  C   UNL     1      -1.264   6.617  -3.010  1.00  0.00     0.103 C 
ATOM     13  Cl  UNL     1      -0.054   7.820  -2.726  1.00  0.00    -0.071 Cl
ENDBRANCH   6  10
ENDBRANCH   3   5
ENDBRANCH   2   3
ENDBRANCH   1   2
BRANCH   1  14
ATOM     14  C   UNL     1      -4.415   1.491  -4.490  1.00  0.00    -0.007 A 
ATOM     15  C   UNL     1      -3.034   1.478  -4.299  1.00  0.00     0.054 A 
ATOM     16  C   UNL     1      -5.121   0.291  -4.563  1.00  0.00     0.007 A 
ATOM     17  C   UNL     1      -2.358   0.263  -4.183  1.00  0.00     0.127 A 
ATOM     18  C   UNL     1      -4.446  -0.924  -4.447  1.00  0.00     0.004 A 
ATOM     19  C   UNL     1      -3.064  -0.937  -4.256  1.00  0.00     0.047 A 
BRANCH  17  20
ATOM     20  O   UNL     1      -1.010   0.250  -3.996  1.00  0.00    -0.457 OA
BRANCH  20  21
ATOM     21  C   UNL     1      -0.521   0.725  -2.792  1.00  0.00     0.127 A 
ATOM     22  C   UNL     1       0.083   1.970  -2.754  1.00  0.00     0.047 A 
ATOM     23  C   UNL     1      -0.647  -0.055  -1.658  1.00  0.00     0.047 A 
ATOM     24  C   UNL     1       0.576   2.449  -1.541  1.00  0.00     0.004 A 
ATOM     25  C   UNL     1      -0.154   0.425  -0.444  1.00  0.00     0.004 A 
ATOM     26  C   UNL     1       0.457   1.677  -0.386  1.00  0.00     0.000 A 
ENDBRANCH  20  21
ENDBRANCH  17  20
ENDBRANCH   1  14
TORSDOF 7
ENDMDL
MODEL 5
REMARK VINA RESULT:    -6.263      2.286      4.499
REMARK INTER + INTRA:         -12.008
REMARK INTER:                  -9.789
REMARK INTRA:                  -2.219
REMARK UNBOUND:                -3.182
REMARK SMILES CC1(C)[C@H](C=C(Cl)Cl)[C@H]1C(=O)OCc1cccc(Oc2ccccc2)c1
REMARK SMILES IDX 13 1 12 2 10 3 11 4 9 5 4 6 2 7 1 8 3 9 5 10 7 11 6 12 8 13
REMARK SMILES IDX 14 14 26 15 15 16 18 17 16 18 17 19 19 20 20 21 21 22 25 23
REMARK SMILES IDX 22 24 24 25 23 26
REMARK H PARENT
REMARK Flexibility Score: inf
ROOT
ATOM      1  C   UNL     1      -4.528   1.994  -4.125  1.00  0.00     0.268 C 
ENDROOT
BRANCH   1   2
ATOM      2  O   UNL     1      -3.138   1.977  -3.827  1.00  0.00    -0.461 OA
BRANCH   2   3
ATOM      3  C   UNL     1      -2.806   1.571  -2.567  1.00  0.00     0.310 C 
ATOM      4  O   UNL     1      -3.345   0.682  -1.922  1.00  0.00    -0.252 OA
BRANCH   3   5
ATOM      5  C   UNL     1      -1.667   2.348  -2.018  1.00  0.00     0.113 C 
ATOM      6  C   UNL     1      -1.289   2.137  -0.586  1.00  0.00     0.035 C 
ATOM      7  C   UNL     1      -1.913   3.432  -1.017  1.00  0.00    -0.014 C 
ATOM      8  C   UNL     1      -1.044   4.645  -1.019  1.00  0.00     0.012 C 
ATOM      9  C   UNL     1      -3.333   3.724  -0.666  1.00  0.00     0.012 C 
BRANCH   6  10
ATOM     10  C   UNL     1       0.126   2.077  -0.248  1.00  0.00     0.011 C 
ATOM     11  Cl  UNL     1       0.233  -0.615  -0.206  1.00  0.00    -0.071 Cl
ATOM     12  C   UNL     1       0.877   0.981  -0.062  1.00  0.00     0.103 C 
ATOM     13  Cl  UNL     1       2.553   1.127   0.340  1.00  0.00    -0.071 Cl
ENDBRANCH   6  10
ENDBRANCH   3   5
ENDBRANCH   2   3
ENDBRANCH   1   2
BRANCH   1  14
ATOM     14  C   UNL     1      -5.133   3.252  -3.602  1.00  0.00    -0.007 A 
ATOM     15  C   UNL     1      -4.620   4.488  -3.995  1.00  0.00     0.054 A 
ATOM     16  C   UNL     1      -6.214   3.193  -2.722  1.00  0.00     0.007 A 
ATOM     17  C   UNL     1      -5.186   5.665  -3.506  1.00  0.00     0.127 A 
ATOM     18  C   UNL     1      -6.779   4.370  -2.232  1.00  0.00     0.004 A 
ATOM     19  C   UNL     1      -6.265   5.606  -2.625  1.00  0.00     0.047 A 
BRANCH  17  20
ATOM     20  O   UNL     1      -4.685   6.872  -3.888  1.00  0.00    -0.457 OA
BRANCH  20  21
ATOM     21  C   UNL     1      -3.471   7.264  -3.353  1.00  0.00     0.127 A 
ATOM     22  C   UNL     1      -2.337   7.214  -4.146  1.00  0.00     0.047 A 
ATOM     23  C   UNL     1      -3.420   7.696  -2.041  1.00  0.00     0.047 A 
ATOM     24  C   UNL     1      -1.114   7.609  -3.607  1.00  0.00     0.004 A 
ATOM     25  C   UNL     1      -2.195   8.092  -1.502  1.00  0.00     0.004 A 
ATOM     26  C   UNL     1      -1.042   8.048  -2.286  1.00  0.00     0.000 A 
ENDBRANCH  20  21
ENDBRANCH  17  20
ENDBRANCH   1  14
TORSDOF 7
ENDMDL
