MODEL 1
REMARK VINA RESULT:    -6.536      0.000      0.000
REMARK INTER + INTRA:          -8.290
REMARK INTER:                  -7.682
REMARK INTRA:                  -0.608
REMARK UNBOUND:                -0.608
REMARK SMILES Clc1ccc(C(c2ccc(Cl)cc2)C(Cl)(Cl)Cl)cc1
REMARK SMILES IDX 6 1 14 2 15 3 16 4 17 5 5 6 4 7 18 8 3 9 19 10 2 11 1 12
REMARK SMILES IDX 7 13 8 14 13 15 9 16 12 17 10 18 11 19
REMARK H PARENT
REMARK Flexibility Score: inf
ROOT
ATOM      1  C   UNL     1      -1.368   1.679  -1.472  1.00  0.00     0.101 C 
ENDROOT
BRANCH   1   2
ATOM      2  C   UNL     1      -1.722   0.710  -2.676  1.00  0.00     0.201 C 
ATOM      3  Cl  UNL     1      -3.479   0.537  -2.993  1.00  0.00    -0.083 Cl
ATOM      4  Cl  UNL     1      -1.105  -0.956  -2.308  1.00  0.00    -0.083 Cl
ATOM      5  Cl  UNL     1      -0.917   1.208  -4.213  1.00  0.00    -0.083 Cl
ENDBRANCH   1   2
BRANCH   1   6
ATOM      6  C   UNL     1      -1.898   3.069  -1.584  1.00  0.00    -0.036 A 
ATOM      7  C   UNL     1      -2.075   3.647  -2.841  1.00  0.00     0.006 A 
ATOM      8  C   UNL     1      -2.213   3.791  -0.433  1.00  0.00     0.006 A 
ATOM      9  C   UNL     1      -2.569   4.948  -2.946  1.00  0.00     0.021 A 
ATOM     10  C   UNL     1      -2.708   5.091  -0.538  1.00  0.00     0.021 A 
ATOM     11  C   UNL     1      -2.885   5.669  -1.794  1.00  0.00     0.041 A 
ATOM     12  Cl  UNL     1      -3.495   7.274  -1.924  1.00  0.00    -0.084 Cl
ENDBRANCH   1   6
BRANCH   1  13
ATOM     13  C   UNL     1       0.093   1.634  -0.959  1.00  0.00    -0.036 A 
ATOM     14  C   UNL     1       0.350   0.925   0.181  1.00  0.00     0.006 A 
ATOM     15  C   UNL     1       1.043   2.307  -1.676  1.00  0.00     0.006 A 
ATOM     16  C   UNL     1       1.665   0.886   0.643  1.00  0.00     0.021 A 
ATOM     17  C   UNL     1       2.358   2.268  -1.213  1.00  0.00     0.021 A 
ATOM     18  C   UNL     1       2.670   1.557  -0.054  1.00  0.00     0.041 A 
ATOM     19  Cl  UNL     1       4.293   1.509   0.516  1.00  0.00    -0.084 Cl
ENDBRANCH   1  13
TORSDOF 3
ENDMDL
MODEL 2
REMARK VINA RESULT:    -6.497      0.080      1.595
REMARK INTER + INTRA:          -8.245
REMARK INTER:                  -7.643
REMARK INTRA:                  -0.602
REMARK UNBOUND:                -0.608
REMARK SMILES Clc1ccc(C(c2ccc(Cl)cc2)C(Cl)(Cl)Cl)cc1
REMARK SMILES IDX 6 1 14 2 15 3 16 4 17 5 5 6 4 7 18 8 3 9 19 10 2 11 1 12
REMARK SMILES IDX 7 13 8 14 13 15 9 16 12 17 10 18 11 19
REMARK H PARENT
REMARK Flexibility Score: inf
ROOT
ATOM      1  C   UNL     1      -1.370   1.652  -1.504  1.00  0.00     0.101 C 
ENDROOT
BRANCH   1   2
ATOM      2  C   UNL     1      -1.702   0.691  -2.722  1.00  0.00     0.201 C 
ATOM      3  Cl  UNL     1      -1.018   1.225  -4.291  1.00  0.00    -0.083 Cl
ATOM      4  Cl  UNL     1      -3.500   0.611  -2.950  1.00  0.00    -0.083 Cl
ATOM      5  Cl  UNL     1      -1.165  -1.005  -2.419  1.00  0.00    -0.083 Cl
ENDBRANCH   1   2
BRANCH   1   6
ATOM      6  C   UNL     1      -1.903   3.040  -1.614  1.00  0.00    -0.036 A 
ATOM      7  C   UNL     1      -2.304   3.725  -0.468  1.00  0.00     0.006 A 
ATOM      8  C   UNL     1      -2.003   3.653  -2.864  1.00  0.00     0.006 A 
ATOM      9  C   UNL     1      -2.804   5.024  -0.570  1.00  0.00     0.021 A 
ATOM     10  C   UNL     1      -2.502   4.951  -2.966  1.00  0.00     0.021 A 
ATOM     11  C   UNL     1      -2.903   5.636  -1.820  1.00  0.00     0.041 A 
ATOM     12  Cl  UNL     1      -3.520   7.238  -1.947  1.00  0.00    -0.084 Cl
ENDBRANCH   1   6
BRANCH   1  13
ATOM     13  C   UNL     1       0.084   1.608  -0.970  1.00  0.00    -0.036 A 
ATOM     14  C   UNL     1       0.336   0.847   0.137  1.00  0.00     0.006 A 
ATOM     15  C   UNL     1       1.031   2.335  -1.636  1.00  0.00     0.006 A 
ATOM     16  C   UNL     1       1.644   0.810   0.618  1.00  0.00     0.021 A 
ATOM     17  C   UNL     1       2.340   2.298  -1.153  1.00  0.00     0.021 A 
ATOM     18  C   UNL     1       2.647   1.535  -0.027  1.00  0.00     0.041 A 
ATOM     19  Cl  UNL     1       4.261   1.489   0.568  1.00  0.00    -0.084 Cl
ENDBRANCH   1  13
TORSDOF 3
ENDMDL
MODEL 3
REMARK VINA RESULT:    -6.400      2.336      4.646
REMARK INTER + INTRA:          -8.130
REMARK INTER:                  -7.547
REMARK INTRA:                  -0.583
REMARK UNBOUND:                -0.608
REMARK SMILES Clc1ccc(C(c2ccc(Cl)cc2)C(Cl)(Cl)Cl)cc1
REMARK SMILES IDX 6 1 14 2 15 3 16 4 17 5 5 6 4 7 18 8 3 9 19 10 2 11 1 12
REMARK SMILES IDX 7 13 8 14 13 15 9 16 12 17 10 18 11 19
REMARK H PARENT
REMARK Flexibility Score: inf
ROOT
ATOM      1  C   UNL     1      -0.213   1.492  -1.718  1.00  0.00     0.101 C 
ENDROOT
BRANCH   1   2
ATOM      2  C   UNL     1       0.164   0.926  -0.286  1.00  0.00     0.201 C 
ATOM      3  Cl  UNL     1      -0.897   1.503   1.040  1.00  0.00    -0.083 Cl
ATOM      4  Cl  UNL     1       1.847   1.453   0.143  1.00  0.00    -0.083 Cl
ATOM      5  Cl  UNL     1       0.186  -0.878  -0.249  1.00  0.00    -0.083 Cl
ENDBRANCH   1   2
BRANCH   1   6
ATOM      6  C   UNL     1      -0.138   2.974  -1.867  1.00  0.00    -0.036 A 
ATOM      7  C   UNL     1       0.425   3.532  -3.015  1.00  0.00     0.006 A 
ATOM      8  C   UNL     1      -0.628   3.803  -0.857  1.00  0.00     0.006 A 
ATOM      9  C   UNL     1       0.497   4.918  -3.154  1.00  0.00     0.021 A 
ATOM     10  C   UNL     1      -0.556   5.189  -0.996  1.00  0.00     0.021 A 
ATOM     11  C   UNL     1       0.006   5.746  -2.144  1.00  0.00     0.041 A 
ATOM     12  Cl  UNL     1       0.096   7.457  -2.315  1.00  0.00    -0.084 Cl
ENDBRANCH   1   6
BRANCH   1  13
ATOM     13  C   UNL     1      -1.473   0.886  -2.387  1.00  0.00    -0.036 A 
ATOM     14  C   UNL     1      -2.693   1.387  -2.027  1.00  0.00     0.006 A 
ATOM     15  C   UNL     1      -1.293  -0.116  -3.299  1.00  0.00     0.006 A 
ATOM     16  C   UNL     1      -3.826   0.840  -2.628  1.00  0.00     0.021 A 
ATOM     17  C   UNL     1      -2.427  -0.664  -3.899  1.00  0.00     0.021 A 
ATOM     18  C   UNL     1      -3.693  -0.185  -3.565  1.00  0.00     0.041 A 
ATOM     19  Cl  UNL     1      -5.092  -0.860  -4.306  1.00  0.00    -0.084 Cl
ENDBRANCH   1  13
TORSDOF 3
ENDMDL
MODEL 4
REMARK VINA RESULT:    -6.078      1.210      5.525
REMARK INTER + INTRA:          -7.753
REMARK INTER:                  -7.101
REMARK INTRA:                  -0.652
REMARK UNBOUND:                -0.608
REMARK SMILES Clc1ccc(C(c2ccc(Cl)cc2)C(Cl)(Cl)Cl)cc1
REMARK SMILES IDX 6 1 14 2 15 3 16 4 17 5 5 6 4 7 18 8 3 9 19 10 2 11 1 12
REMARK SMILES IDX 7 13 8 14 13 15 9 16 12 17 10 18 11 19
REMARK H PARENT
REMARK Flexibility Score: inf
ROOT
ATOM      1  C   UNL     1      -1.580   2.728  -2.494  1.00  0.00     0.101 C 
ENDROOT
BRANCH   1   2
ATOM      2  C   UNL     1      -2.771   1.700  -2.693  1.00  0.00     0.201 C 
ATOM      3  Cl  UNL     1      -2.276  -0.023  -2.647  1.00  0.00    -0.083 Cl
ATOM      4  Cl  UNL     1      -3.529   1.968  -4.320  1.00  0.00    -0.083 Cl
ATOM      5  Cl  UNL     1      -4.091   1.941  -1.486  1.00  0.00    -0.083 Cl
ENDBRANCH   1   2
BRANCH   1   6
ATOM      6  C   UNL     1      -0.495   2.287  -1.570  1.00  0.00    -0.036 A 
ATOM      7  C   UNL     1       0.840   2.496  -1.913  1.00  0.00     0.006 A 
ATOM      8  C   UNL     1      -0.816   1.665  -0.363  1.00  0.00     0.006 A 
ATOM      9  C   UNL     1       1.855   2.083  -1.050  1.00  0.00     0.021 A 
ATOM     10  C   UNL     1       0.198   1.253   0.501  1.00  0.00     0.021 A 
ATOM     11  C   UNL     1       1.533   1.462   0.158  1.00  0.00     0.041 A 
ATOM     12  Cl  UNL     1       2.786   0.952   1.223  1.00  0.00    -0.084 Cl
ENDBRANCH   1   6
BRANCH   1  13
ATOM     13  C   UNL     1      -1.978   4.211  -2.288  1.00  0.00    -0.036 A 
ATOM     14  C   UNL     1      -2.191   4.977  -3.399  1.00  0.00     0.006 A 
ATOM     15  C   UNL     1      -2.093   4.669  -1.005  1.00  0.00     0.006 A 
ATOM     16  C   UNL     1      -2.548   6.312  -3.212  1.00  0.00     0.021 A 
ATOM     17  C   UNL     1      -2.449   6.005  -0.818  1.00  0.00     0.021 A 
ATOM     18  C   UNL     1      -2.677   6.826  -1.922  1.00  0.00     0.041 A 
ATOM     19  Cl  UNL     1      -3.117   8.474  -1.692  1.00  0.00    -0.084 Cl
ENDBRANCH   1  13
TORSDOF 3
ENDMDL
MODEL 5
REMARK VINA RESULT:    -6.076      1.208      5.498
REMARK INTER + INTRA:          -7.749
REMARK INTER:                  -7.101
REMARK INTRA:                  -0.649
REMARK UNBOUND:                -0.608
REMARK SMILES Clc1ccc(C(c2ccc(Cl)cc2)C(Cl)(Cl)Cl)cc1
REMARK SMILES IDX 6 1 14 2 15 3 16 4 17 5 5 6 4 7 18 8 3 9 19 10 2 11 1 12
REMARK SMILES IDX 7 13 8 14 13 15 9 16 12 17 10 18 11 19
REMARK H PARENT
REMARK Flexibility Score: inf
ROOT
ATOM      1  C   UNL     1      -1.529   2.717  -2.434  1.00  0.00     0.101 C 
ENDROOT
BRANCH   1   2
ATOM      2  C   UNL     1      -2.729   1.699  -2.630  1.00  0.00     0.201 C 
ATOM      3  Cl  UNL     1      -2.231  -0.022  -2.706  1.00  0.00    -0.083 Cl
ATOM      4  Cl  UNL     1      -3.569   2.055  -4.199  1.00  0.00    -0.083 Cl
ATOM      5  Cl  UNL     1      -3.985   1.868  -1.346  1.00  0.00    -0.083 Cl
ENDBRANCH   1   2
BRANCH   1   6
ATOM      6  C   UNL     1      -0.446   2.270  -1.512  1.00  0.00    -0.036 A 
ATOM      7  C   UNL     1      -0.770   1.640  -0.311  1.00  0.00     0.006 A 
ATOM      8  C   UNL     1       0.890   2.484  -1.849  1.00  0.00     0.006 A 
ATOM      9  C   UNL     1       0.242   1.222   0.553  1.00  0.00     0.021 A 
ATOM     10  C   UNL     1       1.903   2.066  -0.986  1.00  0.00     0.021 A 
ATOM     11  C   UNL     1       1.579   1.436   0.215  1.00  0.00     0.041 A 
ATOM     12  Cl  UNL     1       2.829   0.921   1.281  1.00  0.00    -0.084 Cl
ENDBRANCH   1   6
BRANCH   1  13
ATOM     13  C   UNL     1      -1.916   4.204  -2.229  1.00  0.00    -0.036 A 
ATOM     14  C   UNL     1      -2.159   4.632  -0.954  1.00  0.00     0.006 A 
ATOM     15  C   UNL     1      -1.993   5.003  -3.336  1.00  0.00     0.006 A 
ATOM     16  C   UNL     1      -2.509   5.969  -0.771  1.00  0.00     0.021 A 
ATOM     17  C   UNL     1      -2.344   6.340  -3.152  1.00  0.00     0.021 A 
ATOM     18  C   UNL     1      -2.600   6.824  -1.869  1.00  0.00     0.041 A 
ATOM     19  Cl  UNL     1      -3.032   8.475  -1.642  1.00  0.00    -0.084 Cl
ENDBRANCH   1  13
TORSDOF 3
ENDMDL
