MODEL 1
REMARK VINA RESULT:    -6.586      0.000      0.000
REMARK INTER + INTRA:         -12.465
REMARK INTER:                  -9.282
REMARK INTRA:                  -3.184
REMARK UNBOUND:                -3.184
REMARK SMILES CC1(C)[C@H](C=C(Cl)Cl)[C@H]1C(=O)OCc1cccc(Oc2ccccc2)c1
REMARK SMILES IDX 13 1 12 2 10 3 11 4 9 5 4 6 2 7 1 8 3 9 5 10 7 11 6 12 8 13
REMARK SMILES IDX 14 14 26 15 15 16 18 17 16 18 17 19 19 20 20 21 21 22 25 23
REMARK SMILES IDX 22 24 24 25 23 26
REMARK H PARENT
REMARK Flexibility Score: inf
ROOT
ATOM      1  C   UNL     1      -0.466   6.859  -3.205  1.00  0.00     0.268 C 
ENDROOT
BRANCH   1   2
ATOM      2  O   UNL     1      -0.284   5.467  -2.976  1.00  0.00    -0.461 OA
BRANCH   2   3
ATOM      3  C   UNL     1       0.024   5.111  -1.695  1.00  0.00     0.310 C 
ATOM      4  O   UNL     1       0.712   5.747  -0.908  1.00  0.00    -0.252 OA
BRANCH   3   5
ATOM      5  C   UNL     1      -0.585   3.811  -1.320  1.00  0.00     0.113 C 
ATOM      6  C   UNL     1      -1.790   3.348  -2.077  1.00  0.00     0.035 C 
ATOM      7  C   UNL     1      -1.919   3.776  -0.644  1.00  0.00    -0.014 C 
ATOM      8  C   UNL     1      -2.204   2.715   0.366  1.00  0.00     0.012 C 
ATOM      9  C   UNL     1      -2.550   5.087  -0.316  1.00  0.00     0.012 C 
BRANCH   6  10
ATOM     10  C   UNL     1      -1.879   1.940  -2.437  1.00  0.00     0.011 C 
ATOM     11  Cl  UNL     1      -0.067   2.100  -4.424  1.00  0.00    -0.071 Cl
ATOM     12  C   UNL     1      -1.206   1.298  -3.404  1.00  0.00     0.103 C 
ATOM     13  Cl  UNL     1      -1.461  -0.391  -3.673  1.00  0.00    -0.071 Cl
ENDBRANCH   6  10
ENDBRANCH   3   5
ENDBRANCH   2   3
ENDBRANCH   1   2
BRANCH   1  14
ATOM     14  C   UNL     1      -1.912   7.199  -3.070  1.00  0.00    -0.007 A 
ATOM     15  C   UNL     1      -2.877   6.394  -3.676  1.00  0.00     0.054 A 
ATOM     16  C   UNL     1      -2.299   8.321  -2.337  1.00  0.00     0.007 A 
ATOM     17  C   UNL     1      -4.229   6.713  -3.549  1.00  0.00     0.127 A 
ATOM     18  C   UNL     1      -3.650   8.639  -2.211  1.00  0.00     0.004 A 
ATOM     19  C   UNL     1      -4.615   7.834  -2.817  1.00  0.00     0.047 A 
BRANCH  17  20
ATOM     20  O   UNL     1      -5.171   5.928  -4.140  1.00  0.00    -0.457 OA
BRANCH  20  21
ATOM     21  C   UNL     1      -5.253   4.606  -3.738  1.00  0.00     0.127 A 
ATOM     22  C   UNL     1      -5.011   3.605  -4.663  1.00  0.00     0.047 A 
ATOM     23  C   UNL     1      -5.574   4.318  -2.425  1.00  0.00     0.047 A 
ATOM     24  C   UNL     1      -5.093   2.273  -4.259  1.00  0.00     0.004 A 
ATOM     25  C   UNL     1      -5.656   2.985  -2.021  1.00  0.00     0.004 A 
ATOM     26  C   UNL     1      -5.415   1.963  -2.938  1.00  0.00     0.000 A 
ENDBRANCH  20  21
ENDBRANCH  17  20
ENDBRANCH   1  14
TORSDOF 7
ENDMDL
MODEL 2
REMARK VINA RESULT:    -6.498      3.330      5.347
REMARK INTER + INTRA:         -12.340
REMARK INTER:                 -10.164
REMARK INTRA:                  -2.176
REMARK UNBOUND:                -3.184
REMARK SMILES CC1(C)[C@H](C=C(Cl)Cl)[C@H]1C(=O)OCc1cccc(Oc2ccccc2)c1
REMARK SMILES IDX 13 1 12 2 10 3 11 4 9 5 4 6 2 7 1 8 3 9 5 10 7 11 6 12 8 13
REMARK SMILES IDX 14 14 26 15 15 16 18 17 16 18 17 19 19 20 20 21 21 22 25 23
REMARK SMILES IDX 22 24 24 25 23 26
REMARK H PARENT
REMARK Flexibility Score: inf
ROOT
ATOM      1  C   UNL     1      -2.858   3.653   0.147  1.00  0.00     0.268 C 
ENDROOT
BRANCH   1   2
ATOM      2  O   UNL     1      -2.423   4.987  -0.088  1.00  0.00    -0.461 OA
BRANCH   2   3
ATOM      3  C   UNL     1      -1.277   5.117  -0.818  1.00  0.00     0.310 C 
ATOM      4  O   UNL     1      -0.276   4.421  -0.734  1.00  0.00    -0.252 OA
BRANCH   3   5
ATOM      5  C   UNL     1      -1.361   6.245  -1.781  1.00  0.00     0.113 C 
ATOM      6  C   UNL     1      -2.693   6.566  -2.382  1.00  0.00     0.035 C 
ATOM      7  C   UNL     1      -1.606   5.974  -3.232  1.00  0.00    -0.014 C 
ATOM      8  C   UNL     1      -0.981   6.856  -4.259  1.00  0.00     0.012 C 
ATOM      9  C   UNL     1      -1.689   4.545  -3.652  1.00  0.00     0.012 C 
BRANCH   6  10
ATOM     10  C   UNL     1      -3.063   7.966  -2.529  1.00  0.00     0.011 C 
ATOM     11  Cl  UNL     1      -5.689   7.471  -2.870  1.00  0.00    -0.071 Cl
ATOM     12  C   UNL     1      -4.289   8.472  -2.738  1.00  0.00     0.103 C 
ATOM     13  Cl  UNL     1      -4.516  10.179  -2.888  1.00  0.00    -0.071 Cl
ENDBRANCH   6  10
ENDBRANCH   3   5
ENDBRANCH   2   3
ENDBRANCH   1   2
BRANCH   1  14
ATOM     14  C   UNL     1      -3.786   3.235  -0.943  1.00  0.00    -0.007 A 
ATOM     15  C   UNL     1      -4.894   4.024  -1.257  1.00  0.00     0.054 A 
ATOM     16  C   UNL     1      -3.546   2.057  -1.650  1.00  0.00     0.007 A 
ATOM     17  C   UNL     1      -5.761   3.632  -2.277  1.00  0.00     0.127 A 
ATOM     18  C   UNL     1      -4.413   1.666  -2.669  1.00  0.00     0.004 A 
ATOM     19  C   UNL     1      -5.521   2.454  -2.983  1.00  0.00     0.047 A 
BRANCH  17  20
ATOM     20  O   UNL     1      -6.842   4.401  -2.583  1.00  0.00    -0.457 OA
BRANCH  20  21
ATOM     21  C   UNL     1      -7.850   4.500  -1.640  1.00  0.00     0.127 A 
ATOM     22  C   UNL     1      -8.124   5.732  -1.072  1.00  0.00     0.047 A 
ATOM     23  C   UNL     1      -8.558   3.366  -1.288  1.00  0.00     0.047 A 
ATOM     24  C   UNL     1      -9.139   5.832  -0.122  1.00  0.00     0.004 A 
ATOM     25  C   UNL     1      -9.575   3.466  -0.337  1.00  0.00     0.004 A 
ATOM     26  C   UNL     1      -9.866   4.699   0.245  1.00  0.00     0.000 A 
ENDBRANCH  20  21
ENDBRANCH  17  20
ENDBRANCH   1  14
TORSDOF 7
ENDMDL
MODEL 3
REMARK VINA RESULT:    -6.308      2.589      5.130
REMARK INTER + INTRA:         -12.073
REMARK INTER:                 -10.059
REMARK INTRA:                  -2.014
REMARK UNBOUND:                -3.184
REMARK SMILES CC1(C)[C@H](C=C(Cl)Cl)[C@H]1C(=O)OCc1cccc(Oc2ccccc2)c1
REMARK SMILES IDX 13 1 12 2 10 3 11 4 9 5 4 6 2 7 1 8 3 9 5 10 7 11 6 12 8 13
REMARK SMILES IDX 14 14 26 15 15 16 18 17 16 18 17 19 19 20 20 21 21 22 25 23
REMARK SMILES IDX 22 24 24 25 23 26
REMARK H PARENT
REMARK Flexibility Score: inf
ROOT
ATOM      1  C   UNL     1       0.984   3.506  -1.759  1.00  0.00     0.268 C 
ENDROOT
BRANCH   1   2
ATOM      2  O   UNL     1       0.071   4.491  -2.226  1.00  0.00    -0.461 OA
BRANCH   2   3
ATOM      3  C   UNL     1      -0.055   5.603  -1.445  1.00  0.00     0.310 C 
ATOM      4  O   UNL     1       0.836   6.155  -0.814  1.00  0.00    -0.252 OA
BRANCH   3   5
ATOM      5  C   UNL     1      -1.449   6.113  -1.429  1.00  0.00     0.113 C 
ATOM      6  C   UNL     1      -2.314   5.849  -2.620  1.00  0.00     0.035 C 
ATOM      7  C   UNL     1      -1.844   7.243  -2.325  1.00  0.00    -0.014 C 
ATOM      8  C   UNL     1      -2.863   8.228  -1.861  1.00  0.00     0.012 C 
ATOM      9  C   UNL     1      -0.770   7.855  -3.161  1.00  0.00     0.012 C 
BRANCH   6  10
ATOM     10  C   UNL     1      -3.704   5.477  -2.394  1.00  0.00     0.011 C 
ATOM     11  Cl  UNL     1      -3.124   3.050  -1.376  1.00  0.00    -0.071 Cl
ATOM     12  C   UNL     1      -4.170   4.329  -1.878  1.00  0.00     0.103 C 
ATOM     13  Cl  UNL     1      -5.872   4.081  -1.694  1.00  0.00    -0.071 Cl
ENDBRANCH   6  10
ENDBRANCH   3   5
ENDBRANCH   2   3
ENDBRANCH   1   2
BRANCH   1  14
ATOM     14  C   UNL     1       0.352   2.159  -1.854  1.00  0.00    -0.007 A 
ATOM     15  C   UNL     1      -0.236   1.748  -3.051  1.00  0.00     0.054 A 
ATOM     16  C   UNL     1       0.351   1.310  -0.748  1.00  0.00     0.007 A 
ATOM     17  C   UNL     1      -0.827   0.487  -3.139  1.00  0.00     0.127 A 
ATOM     18  C   UNL     1      -0.240   0.050  -0.837  1.00  0.00     0.004 A 
ATOM     19  C   UNL     1      -0.829  -0.361  -2.033  1.00  0.00     0.047 A 
BRANCH  17  20
ATOM     20  O   UNL     1      -1.402   0.086  -4.306  1.00  0.00    -0.457 OA
BRANCH  20  21
ATOM     21  C   UNL     1      -2.778   0.182  -4.413  1.00  0.00     0.127 A 
ATOM     22  C   UNL     1      -3.358   1.431  -4.556  1.00  0.00     0.047 A 
ATOM     23  C   UNL     1      -3.540  -0.972  -4.374  1.00  0.00     0.047 A 
ATOM     24  C   UNL     1      -4.744   1.527  -4.663  1.00  0.00     0.004 A 
ATOM     25  C   UNL     1      -4.928  -0.874  -4.482  1.00  0.00     0.004 A 
ATOM     26  C   UNL     1      -5.529   0.375  -4.627  1.00  0.00     0.000 A 
ENDBRANCH  20  21
ENDBRANCH  17  20
ENDBRANCH   1  14
TORSDOF 7
ENDMDL
MODEL 4
REMARK VINA RESULT:    -6.261      2.725      5.218
REMARK INTER + INTRA:         -12.007
REMARK INTER:                  -8.707
REMARK INTRA:                  -3.300
REMARK UNBOUND:                -3.184
REMARK SMILES CC1(C)[C@H](C=C(Cl)Cl)[C@H]1C(=O)OCc1cccc(Oc2ccccc2)c1
REMARK SMILES IDX 13 1 12 2 10 3 11 4 9 5 4 6 2 7 1 8 3 9 5 10 7 11 6 12 8 13
REMARK SMILES IDX 14 14 26 15 15 16 18 17 16 18 17 19 19 20 20 21 21 22 25 23
REMARK SMILES IDX 22 24 24 25 23 26
REMARK H PARENT
REMARK Flexibility Score: inf
ROOT
ATOM      1  C   UNL     1      -0.207   1.312  -0.570  1.00  0.00     0.268 C 
ENDROOT
BRANCH   1   2
ATOM      2  O   UNL     1      -0.057   2.720  -0.701  1.00  0.00    -0.461 OA
BRANCH   2   3
ATOM      3  C   UNL     1       0.917   3.136  -1.562  1.00  0.00     0.310 C 
ATOM      4  O   UNL     1       2.000   2.600  -1.751  1.00  0.00    -0.252 OA
BRANCH   3   5
ATOM      5  C   UNL     1       0.521   4.368  -2.291  1.00  0.00     0.113 C 
ATOM      6  C   UNL     1      -0.936   4.618  -2.521  1.00  0.00     0.035 C 
ATOM      7  C   UNL     1      -0.040   4.271  -3.674  1.00  0.00    -0.014 C 
ATOM      8  C   UNL     1       0.254   5.349  -4.663  1.00  0.00     0.012 C 
ATOM      9  C   UNL     1      -0.111   2.913  -4.286  1.00  0.00     0.012 C 
BRANCH   6  10
ATOM     10  C   UNL     1      -1.436   5.976  -2.359  1.00  0.00     0.011 C 
ATOM     11  Cl  UNL     1      -2.543   5.520   0.055  1.00  0.00    -0.071 Cl
ATOM     12  C   UNL     1      -2.125   6.475  -1.321  1.00  0.00     0.103 C 
ATOM     13  Cl  UNL     1      -2.634   8.128  -1.324  1.00  0.00    -0.071 Cl
ENDBRANCH   6  10
ENDBRANCH   3   5
ENDBRANCH   2   3
ENDBRANCH   1   2
BRANCH   1  14
ATOM     14  C   UNL     1      -1.212   0.827  -1.559  1.00  0.00    -0.007 A 
ATOM     15  C   UNL     1      -2.455   1.451  -1.654  1.00  0.00     0.054 A 
ATOM     16  C   UNL     1      -0.907  -0.252  -2.390  1.00  0.00     0.007 A 
ATOM     17  C   UNL     1      -3.394   0.997  -2.580  1.00  0.00     0.127 A 
ATOM     18  C   UNL     1      -1.846  -0.706  -3.315  1.00  0.00     0.004 A 
ATOM     19  C   UNL     1      -3.090  -0.082  -3.410  1.00  0.00     0.047 A 
BRANCH  17  20
ATOM     20  O   UNL     1      -4.608   1.606  -2.673  1.00  0.00    -0.457 OA
BRANCH  20  21
ATOM     21  C   UNL     1      -4.633   2.939  -3.045  1.00  0.00     0.127 A 
ATOM     22  C   UNL     1      -4.105   3.306  -4.270  1.00  0.00     0.047 A 
ATOM     23  C   UNL     1      -5.185   3.869  -2.184  1.00  0.00     0.047 A 
ATOM     24  C   UNL     1      -4.130   4.649  -4.645  1.00  0.00     0.004 A 
ATOM     25  C   UNL     1      -5.210   5.213  -2.560  1.00  0.00     0.004 A 
ATOM     26  C   UNL     1      -4.683   5.602  -3.791  1.00  0.00     0.000 A 
ENDBRANCH  20  21
ENDBRANCH  17  20
ENDBRANCH   1  14
TORSDOF 7
ENDMDL
MODEL 5
REMARK VINA RESULT:    -6.244      2.966      5.417
REMARK INTER + INTRA:         -11.983
REMARK INTER:                 -10.299
REMARK INTRA:                  -1.683
REMARK UNBOUND:                -3.184
REMARK SMILES CC1(C)[C@H](C=C(Cl)Cl)[C@H]1C(=O)OCc1cccc(Oc2ccccc2)c1
REMARK SMILES IDX 13 1 12 2 10 3 11 4 9 5 4 6 2 7 1 8 3 9 5 10 7 11 6 12 8 13
REMARK SMILES IDX 14 14 26 15 15 16 18 17 16 18 17 19 19 20 20 21 21 22 25 23
REMARK SMILES IDX 22 24 24 25 23 26
REMARK H PARENT
REMARK Flexibility Score: inf
ROOT
ATOM      1  C   UNL     1       1.263   3.463  -1.962  1.00  0.00     0.268 C 
ENDROOT
BRANCH   1   2
ATOM      2  O   UNL     1       0.481   4.470  -2.593  1.00  0.00    -0.461 OA
BRANCH   2   3
ATOM      3  C   UNL     1      -0.041   5.422  -1.766  1.00  0.00     0.310 C 
ATOM      4  O   UNL     1       0.552   6.021  -0.879  1.00  0.00    -0.252 OA
BRANCH   3   5
ATOM      5  C   UNL     1      -1.473   5.682  -2.056  1.00  0.00     0.113 C 
ATOM      6  C   UNL     1      -2.267   6.469  -1.062  1.00  0.00     0.035 C 
ATOM      7  C   UNL     1      -2.536   5.005  -1.251  1.00  0.00    -0.014 C 
ATOM      8  C   UNL     1      -3.821   4.621  -1.904  1.00  0.00     0.012 C 
ATOM      9  C   UNL     1      -2.086   4.029  -0.216  1.00  0.00     0.012 C 
BRANCH   6  10
ATOM     10  C   UNL     1      -3.208   7.461  -1.561  1.00  0.00     0.011 C 
ATOM     11  Cl  UNL     1      -1.497   8.508  -3.361  1.00  0.00    -0.071 Cl
ATOM     12  C   UNL     1      -3.002   8.373  -2.524  1.00  0.00     0.103 C 
ATOM     13  Cl  UNL     1      -4.260   9.473  -2.971  1.00  0.00    -0.071 Cl
ENDBRANCH   6  10
ENDBRANCH   3   5
ENDBRANCH   2   3
ENDBRANCH   1   2
BRANCH   1  14
ATOM     14  C   UNL     1       0.517   2.172  -1.981  1.00  0.00    -0.007 A 
ATOM     15  C   UNL     1      -0.126   1.755  -3.146  1.00  0.00     0.054 A 
ATOM     16  C   UNL     1       0.465   1.381  -0.833  1.00  0.00     0.007 A 
ATOM     17  C   UNL     1      -0.823   0.546  -3.163  1.00  0.00     0.127 A 
ATOM     18  C   UNL     1      -0.233   0.173  -0.850  1.00  0.00     0.004 A 
ATOM     19  C   UNL     1      -0.876  -0.244  -2.016  1.00  0.00     0.047 A 
BRANCH  17  20
ATOM     20  O   UNL     1      -1.451   0.139  -4.300  1.00  0.00    -0.457 OA
BRANCH  20  21
ATOM     21  C   UNL     1      -2.832   0.219  -4.337  1.00  0.00     0.127 A 
ATOM     22  C   UNL     1      -3.437   1.461  -4.247  1.00  0.00     0.047 A 
ATOM     23  C   UNL     1      -3.572  -0.942  -4.462  1.00  0.00     0.047 A 
ATOM     24  C   UNL     1      -4.829   1.542  -4.285  1.00  0.00     0.004 A 
ATOM     25  C   UNL     1      -4.965  -0.860  -4.500  1.00  0.00     0.004 A 
ATOM     26  C   UNL     1      -5.592   0.382  -4.412  1.00  0.00     0.000 A 
ENDBRANCH  20  21
ENDBRANCH  17  20
ENDBRANCH   1  14
TORSDOF 7
ENDMDL
