MODEL 1
REMARK VINA RESULT:    -6.861      0.000      0.000
REMARK INTER + INTRA:         -11.371
REMARK INTER:                 -10.070
REMARK INTRA:                  -1.302
REMARK UNBOUND:                -1.302
REMARK SMILES CC1(C)C(C=C(Br)Br)C1C(=O)OC(C#N)c1cccc(Oc2ccccc2)c1
REMARK SMILES IDX 13 1 12 2 10 3 11 4 9 5 4 6 2 7 1 8 3 9 5 10 7 11 6 12 8 13
REMARK SMILES IDX 16 14 28 15 17 16 20 17 18 18 19 19 21 20 22 21 23 22 27 23
REMARK SMILES IDX 24 24 26 25 25 26 14 27 15 28
REMARK H PARENT
REMARK Flexibility Score: inf
ROOT
ATOM      1  C   UNL     1      -4.705   1.444  -2.897  1.00  0.00     0.309 C
ENDROOT
BRANCH   1   2
ATOM      2  O   UNL     1      -3.386   1.697  -3.399  1.00  0.00    -0.442 OA
BRANCH   2   3
ATOM      3  C   UNL     1      -2.415   1.807  -2.453  1.00  0.00     0.311 C
ATOM      4  O   UNL     1      -1.825   0.895  -1.892  1.00  0.00    -0.252 OA
BRANCH   3   5
ATOM      5  C   UNL     1      -2.120   3.230  -2.144  1.00  0.00     0.113 C
ATOM      6  C   UNL     1      -1.098   3.531  -1.095  1.00  0.00     0.035 C
ATOM      7  C   UNL     1      -2.548   3.816  -0.837  1.00  0.00    -0.014 C
ATOM      8  C   UNL     1      -3.247   2.954   0.161  1.00  0.00     0.012 C
ATOM      9  C   UNL     1      -3.040   5.225  -0.854  1.00  0.00     0.012 C
BRANCH   6  10
ATOM     10  C   UNL     1      -0.435   2.416  -0.435  1.00  0.00     0.001 C
ATOM     11  Br  UNL     1       2.030   2.778  -1.804  1.00  0.00    -0.043 Br
ATOM     12  C   UNL     1       0.825   1.983  -0.612  1.00  0.00     0.057 C
ATOM     13  Br  UNL     1       1.487   0.515   0.349  1.00  0.00    -0.043 Br
ENDBRANCH   6  10
ENDBRANCH   3   5
ENDBRANCH   2   3
ENDBRANCH   1   2
BRANCH   1  14
ATOM     14  C   UNL     1      -5.482   2.715  -2.848  1.00  0.00     0.011 A
ATOM     15  C   UNL     1      -5.085   3.807  -3.621  1.00  0.00     0.055 A
ATOM     16  C   UNL     1      -6.609   2.812  -2.031  1.00  0.00     0.009 A
ATOM     17  C   UNL     1      -5.813   4.995  -3.575  1.00  0.00     0.127 A
ATOM     18  C   UNL     1      -7.336   4.002  -1.985  1.00  0.00     0.004 A
ATOM     19  C   UNL     1      -6.938   5.093  -2.757  1.00  0.00     0.047 A
BRANCH  17  20
ATOM     20  O   UNL     1      -5.425   6.062  -4.327  1.00  0.00    -0.457 OA
BRANCH  20  21
ATOM     21  C   UNL     1      -4.376   6.835  -3.855  1.00  0.00     0.127 A
ATOM     22  C   UNL     1      -4.640   7.845  -2.950  1.00  0.00     0.047 A
ATOM     23  C   UNL     1      -3.093   6.575  -4.303  1.00  0.00     0.047 A
ATOM     24  C   UNL     1      -3.584   8.625  -2.474  1.00  0.00     0.004 A
ATOM     25  C   UNL     1      -2.038   7.354  -3.829  1.00  0.00     0.004 A
ATOM     26  C   UNL     1      -2.283   8.378  -2.913  1.00  0.00     0.000 A
ENDBRANCH  20  21
ENDBRANCH  17  20
ENDBRANCH   1  14
BRANCH   1  27
ATOM     27  C   UNL     1      -5.356   0.412  -3.730  1.00  0.00     0.113 C
ATOM     28  N   UNL     1      -5.866  -0.406  -4.376  1.00  0.00    -0.194 NA
ENDBRANCH   1  27
TORSDOF 8
ENDMDL
MODEL 2
REMARK VINA RESULT:    -6.845      1.562      2.065
REMARK INTER + INTRA:         -11.348
REMARK INTER:                  -9.838
REMARK INTRA:                  -1.510
REMARK UNBOUND:                -1.302
REMARK SMILES CC1(C)C(C=C(Br)Br)C1C(=O)OC(C#N)c1cccc(Oc2ccccc2)c1
REMARK SMILES IDX 13 1 12 2 10 3 11 4 9 5 4 6 2 7 1 8 3 9 5 10 7 11 6 12 8 13
REMARK SMILES IDX 16 14 28 15 17 16 20 17 18 18 19 19 21 20 22 21 23 22 27 23
REMARK SMILES IDX 24 24 26 25 25 26 14 27 15 28
REMARK H PARENT
REMARK Flexibility Score: inf
ROOT
ATOM      1  C   UNL     1      -4.561   1.202  -2.873  1.00  0.00     0.309 C
ENDROOT
BRANCH   1   2
ATOM      2  O   UNL     1      -3.193   1.329  -3.285  1.00  0.00    -0.442 OA
BRANCH   2   3
ATOM      3  C   UNL     1      -2.275   0.833  -2.413  1.00  0.00     0.311 C
ATOM      4  O   UNL     1      -1.571  -0.156  -2.567  1.00  0.00    -0.252 OA
BRANCH   3   5
ATOM      5  C   UNL     1      -2.202   1.654  -1.177  1.00  0.00     0.113 C
ATOM      6  C   UNL     1      -1.341   2.876  -1.186  1.00  0.00     0.035 C
ATOM      7  C   UNL     1      -0.944   1.681  -0.369  1.00  0.00    -0.014 C
ATOM      8  C   UNL     1       0.241   0.900  -0.831  1.00  0.00     0.012 C
ATOM      9  C   UNL     1      -1.092   1.718   1.115  1.00  0.00     0.012 C
BRANCH   6  10
ATOM     10  C   UNL     1      -0.623   3.206  -2.408  1.00  0.00     0.001 C
ATOM     11  Br  UNL     1       0.309   5.716  -1.451  1.00  0.00    -0.043 Br
ATOM     12  C   UNL     1       0.090   4.314  -2.673  1.00  0.00     0.057 C
ATOM     13  Br  UNL     1       0.944   4.543  -4.326  1.00  0.00    -0.043 Br
ENDBRANCH   6  10
ENDBRANCH   3   5
ENDBRANCH   2   3
ENDBRANCH   1   2
BRANCH   1  14
ATOM     14  C   UNL     1      -5.232   2.531  -2.919  1.00  0.00     0.011 A
ATOM     15  C   UNL     1      -4.742   3.532  -3.760  1.00  0.00     0.055 A
ATOM     16  C   UNL     1      -6.350   2.776  -2.122  1.00  0.00     0.009 A
ATOM     17  C   UNL     1      -5.371   4.776  -3.803  1.00  0.00     0.127 A
ATOM     18  C   UNL     1      -6.978   4.021  -2.166  1.00  0.00     0.004 A
ATOM     19  C   UNL     1      -6.489   5.021  -3.005  1.00  0.00     0.047 A
BRANCH  17  20
ATOM     20  O   UNL     1      -4.894   5.752  -4.623  1.00  0.00    -0.457 OA
BRANCH  20  21
ATOM     21  C   UNL     1      -3.931   6.607  -4.112  1.00  0.00     0.127 A
ATOM     22  C   UNL     1      -4.290   7.522  -3.139  1.00  0.00     0.047 A
ATOM     23  C   UNL     1      -2.635   6.524  -4.588  1.00  0.00     0.047 A
ATOM     24  C   UNL     1      -3.321   8.384  -2.624  1.00  0.00     0.004 A
ATOM     25  C   UNL     1      -1.666   7.386  -4.075  1.00  0.00     0.004 A
ATOM     26  C   UNL     1      -2.008   8.315  -3.092  1.00  0.00     0.000 A
ENDBRANCH  20  21
ENDBRANCH  17  20
ENDBRANCH   1  14
BRANCH   1  27
ATOM     27  C   UNL     1      -5.234   0.196  -3.720  1.00  0.00     0.113 C
ATOM     28  N   UNL     1      -5.758  -0.603  -4.379  1.00  0.00    -0.194 NA
ENDBRANCH   1  27
TORSDOF 8
ENDMDL
MODEL 3
REMARK VINA RESULT:    -6.833      2.334      4.475
REMARK INTER + INTRA:         -11.331
REMARK INTER:                 -10.220
REMARK INTRA:                  -1.111
REMARK UNBOUND:                -1.302
REMARK SMILES CC1(C)C(C=C(Br)Br)C1C(=O)OC(C#N)c1cccc(Oc2ccccc2)c1
REMARK SMILES IDX 13 1 12 2 10 3 11 4 9 5 4 6 2 7 1 8 3 9 5 10 7 11 6 12 8 13
REMARK SMILES IDX 16 14 28 15 17 16 20 17 18 18 19 19 21 20 22 21 23 22 27 23
REMARK SMILES IDX 24 24 26 25 25 26 14 27 15 28
REMARK H PARENT
REMARK Flexibility Score: inf
ROOT
ATOM      1  C   UNL     1      -4.297   1.574  -2.424  1.00  0.00     0.309 C
ENDROOT
BRANCH   1   2
ATOM      2  O   UNL     1      -2.944   1.678  -2.887  1.00  0.00    -0.442 OA
BRANCH   2   3
ATOM      3  C   UNL     1      -2.014   1.064  -2.107  1.00  0.00     0.311 C
ATOM      4  O   UNL     1      -1.354   0.074  -2.388  1.00  0.00    -0.252 OA
BRANCH   3   5
ATOM      5  C   UNL     1      -1.865   1.752  -0.798  1.00  0.00     0.113 C
ATOM      6  C   UNL     1      -0.958   2.938  -0.719  1.00  0.00     0.035 C
ATOM      7  C   UNL     1      -0.578   1.654  -0.043  1.00  0.00    -0.014 C
ATOM      8  C   UNL     1       0.559   0.883  -0.627  1.00  0.00     0.012 C
ATOM      9  C   UNL     1      -0.672   1.544   1.442  1.00  0.00     0.012 C
BRANCH   6  10
ATOM     10  C   UNL     1      -0.273   3.367  -1.929  1.00  0.00     0.001 C
ATOM     11  Br  UNL     1      -1.103   6.076  -1.712  1.00  0.00    -0.043 Br
ATOM     12  C   UNL     1      -0.235   4.599  -2.465  1.00  0.00     0.057 C
ATOM     13  Br  UNL     1       0.716   4.939  -4.045  1.00  0.00    -0.043 Br
ENDBRANCH   6  10
ENDBRANCH   3   5
ENDBRANCH   2   3
ENDBRANCH   1   2
BRANCH   1  14
ATOM     14  C   UNL     1      -4.954   2.911  -2.468  1.00  0.00     0.011 A
ATOM     15  C   UNL     1      -6.344   3.009  -2.404  1.00  0.00     0.055 A
ATOM     16  C   UNL     1      -4.178   4.066  -2.571  1.00  0.00     0.009 A
ATOM     17  C   UNL     1      -6.958   4.260  -2.445  1.00  0.00     0.127 A
ATOM     18  C   UNL     1      -4.792   5.318  -2.612  1.00  0.00     0.004 A
ATOM     19  C   UNL     1      -6.182   5.415  -2.549  1.00  0.00     0.047 A
BRANCH  17  20
ATOM     20  O   UNL     1      -8.315   4.356  -2.384  1.00  0.00    -0.457 OA
BRANCH  20  21
ATOM     21  C   UNL     1      -8.899   4.419  -1.130  1.00  0.00     0.127 A
ATOM     22  C   UNL     1      -9.627   3.337  -0.671  1.00  0.00     0.047 A
ATOM     23  C   UNL     1      -8.740   5.564  -0.369  1.00  0.00     0.047 A
ATOM     24  C   UNL     1     -10.217   3.400   0.593  1.00  0.00     0.004 A
ATOM     25  C   UNL     1      -9.329   5.627   0.893  1.00  0.00     0.004 A
ATOM     26  C   UNL     1     -10.067   4.546   1.375  1.00  0.00     0.000 A
ENDBRANCH  20  21
ENDBRANCH  17  20
ENDBRANCH   1  14
BRANCH   1  27
ATOM     27  C   UNL     1      -5.013   0.563  -3.228  1.00  0.00     0.113 C
ATOM     28  N   UNL     1      -5.566  -0.233  -3.866  1.00  0.00    -0.194 NA
ENDBRANCH   1  27
TORSDOF 8
ENDMDL
MODEL 4
REMARK VINA RESULT:    -6.756      2.120      2.985
REMARK INTER + INTRA:         -11.217
REMARK INTER:                 -10.005
REMARK INTRA:                  -1.212
REMARK UNBOUND:                -1.302
REMARK SMILES CC1(C)C(C=C(Br)Br)C1C(=O)OC(C#N)c1cccc(Oc2ccccc2)c1
REMARK SMILES IDX 13 1 12 2 10 3 11 4 9 5 4 6 2 7 1 8 3 9 5 10 7 11 6 12 8 13
REMARK SMILES IDX 16 14 28 15 17 16 20 17 18 18 19 19 21 20 22 21 23 22 27 23
REMARK SMILES IDX 24 24 26 25 25 26 14 27 15 28
REMARK H PARENT
REMARK Flexibility Score: inf
ROOT
ATOM      1  C   UNL     1      -2.437   1.229  -3.317  1.00  0.00     0.309 C
ENDROOT
BRANCH   1   2
ATOM      2  O   UNL     1      -1.337   1.941  -3.899  1.00  0.00    -0.442 OA
BRANCH   2   3
ATOM      3  C   UNL     1      -0.227   2.035  -3.119  1.00  0.00     0.311 C
ATOM      4  O   UNL     1       0.909   2.305  -3.482  1.00  0.00    -0.252 OA
BRANCH   3   5
ATOM      5  C   UNL     1      -0.542   1.759  -1.693  1.00  0.00     0.113 C
ATOM      6  C   UNL     1      -0.421   2.879  -0.710  1.00  0.00     0.035 C
ATOM      7  C   UNL     1       0.552   1.738  -0.675  1.00  0.00    -0.014 C
ATOM      8  C   UNL     1       1.955   2.022  -1.099  1.00  0.00     0.012 C
ATOM      9  C   UNL     1       0.453   0.713   0.405  1.00  0.00     0.012 C
BRANCH   6  10
ATOM     10  C   UNL     1      -0.010   4.186  -1.199  1.00  0.00     0.001 C
ATOM     11  Br  UNL     1      -2.541   5.401  -0.752  1.00  0.00    -0.043 Br
ATOM     12  C   UNL     1      -0.748   5.306  -1.281  1.00  0.00     0.057 C
ATOM     13  Br  UNL     1      -0.017   6.900  -1.947  1.00  0.00    -0.043 Br
ENDBRANCH   6  10
ENDBRANCH   3   5
ENDBRANCH   2   3
ENDBRANCH   1   2
BRANCH   1  14
ATOM     14  C   UNL     1      -3.642   2.105  -3.270  1.00  0.00     0.011 A
ATOM     15  C   UNL     1      -3.665   3.301  -3.989  1.00  0.00     0.055 A
ATOM     16  C   UNL     1      -4.749   1.729  -2.509  1.00  0.00     0.009 A
ATOM     17  C   UNL     1      -4.792   4.120  -3.946  1.00  0.00     0.127 A
ATOM     18  C   UNL     1      -5.877   2.549  -2.466  1.00  0.00     0.004 A
ATOM     19  C   UNL     1      -5.899   3.744  -3.184  1.00  0.00     0.047 A
BRANCH  17  20
ATOM     20  O   UNL     1      -4.814   5.287  -4.646  1.00  0.00    -0.457 OA
BRANCH  20  21
ATOM     21  C   UNL     1      -4.359   6.429  -4.008  1.00  0.00     0.127 A
ATOM     22  C   UNL     1      -5.203   7.096  -3.139  1.00  0.00     0.047 A
ATOM     23  C   UNL     1      -3.072   6.872  -4.256  1.00  0.00     0.047 A
ATOM     24  C   UNL     1      -4.745   8.247  -2.496  1.00  0.00     0.004 A
ATOM     25  C   UNL     1      -2.615   8.022  -3.614  1.00  0.00     0.004 A
ATOM     26  C   UNL     1      -3.450   8.710  -2.733  1.00  0.00     0.000 A
ENDBRANCH  20  21
ENDBRANCH  17  20
ENDBRANCH   1  14
BRANCH   1  27
ATOM     27  C   UNL     1      -2.670  -0.017  -4.076  1.00  0.00     0.113 C
ATOM     28  N   UNL     1      -2.856  -1.000  -4.662  1.00  0.00    -0.194 NA
ENDBRANCH   1  27
TORSDOF 8
ENDMDL
MODEL 5
REMARK VINA RESULT:    -6.673     13.977     17.625
REMARK INTER + INTRA:         -11.096
REMARK INTER:                 -10.287
REMARK INTRA:                  -0.809
REMARK UNBOUND:                -1.302
REMARK SMILES CC1(C)C(C=C(Br)Br)C1C(=O)OC(C#N)c1cccc(Oc2ccccc2)c1
REMARK SMILES IDX 13 1 12 2 10 3 11 4 9 5 4 6 2 7 1 8 3 9 5 10 7 11 6 12 8 13
REMARK SMILES IDX 16 14 28 15 17 16 20 17 18 18 19 19 21 20 22 21 23 22 27 23
REMARK SMILES IDX 24 24 26 25 25 26 14 27 15 28
REMARK H PARENT
REMARK Flexibility Score: inf
ROOT
ATOM      1  C   UNL     1       6.172  -3.416  11.481  1.00  0.00     0.309 C
ENDROOT
BRANCH   1   2
ATOM      2  O   UNL     1       5.112  -2.582  11.968  1.00  0.00    -0.442 OA
BRANCH   2   3
ATOM      3  C   UNL     1       4.599  -2.939  13.176  1.00  0.00     0.311 C
ATOM      4  O   UNL     1       5.075  -2.705  14.278  1.00  0.00    -0.252 OA
BRANCH   3   5
ATOM      5  C   UNL     1       3.325  -3.689  13.023  1.00  0.00     0.113 C
ATOM      6  C   UNL     1       2.041  -2.963  13.264  1.00  0.00     0.035 C
ATOM      7  C   UNL     1       2.501  -4.018  14.226  1.00  0.00    -0.014 C
ATOM      8  C   UNL     1       2.955  -3.564  15.573  1.00  0.00     0.012 C
ATOM      9  C   UNL     1       1.827  -5.350  14.242  1.00  0.00     0.012 C
BRANCH   6  10
ATOM     10  C   UNL     1       2.100  -1.555  13.627  1.00  0.00     0.001 C
ATOM     11  Br  UNL     1      -0.408  -0.913  12.452  1.00  0.00    -0.043 Br
ATOM     12  C   UNL     1       1.192  -0.598  13.372  1.00  0.00     0.057 C
ATOM     13  Br  UNL     1       1.466   1.170  13.935  1.00  0.00    -0.043 Br
ENDBRANCH   6  10
ENDBRANCH   3   5
ENDBRANCH   2   3
ENDBRANCH   1   2
BRANCH   1  14
ATOM     14  C   UNL     1       5.791  -4.005  10.166  1.00  0.00     0.011 A
ATOM     15  C   UNL     1       4.480  -4.429   9.944  1.00  0.00     0.055 A
ATOM     16  C   UNL     1       6.746  -4.131   9.157  1.00  0.00     0.009 A
ATOM     17  C   UNL     1       4.125  -4.979   8.713  1.00  0.00     0.127 A
ATOM     18  C   UNL     1       6.389  -4.683   7.926  1.00  0.00     0.004 A
ATOM     19  C   UNL     1       5.080  -5.107   7.704  1.00  0.00     0.047 A
BRANCH  17  20
ATOM     20  O   UNL     1       2.847  -5.394   8.495  1.00  0.00    -0.457 OA
BRANCH  20  21
ATOM     21  C   UNL     1       1.870  -4.421   8.355  1.00  0.00     0.127 A
ATOM     22  C   UNL     1       1.223  -3.950   9.482  1.00  0.00     0.047 A
ATOM     23  C   UNL     1       1.568  -3.947   7.091  1.00  0.00     0.047 A
ATOM     24  C   UNL     1       0.239  -2.970   9.342  1.00  0.00     0.004 A
ATOM     25  C   UNL     1       0.584  -2.969   6.950  1.00  0.00     0.004 A
ATOM     26  C   UNL     1      -0.080  -2.479   8.075  1.00  0.00     0.000 A
ENDBRANCH  20  21
ENDBRANCH  17  20
ENDBRANCH   1  14
BRANCH   1  27
ATOM     27  C   UNL     1       7.420  -2.629  11.412  1.00  0.00     0.113 C
ATOM     28  N   UNL     1       8.405  -2.017  11.367  1.00  0.00    -0.194 NA
ENDBRANCH   1  27
TORSDOF 8
ENDMDL
