MODEL 1
REMARK VINA RESULT:    -6.581      0.000      0.000
REMARK INTER + INTRA:          -8.367
REMARK INTER:                  -7.735
REMARK INTRA:                  -0.632
REMARK UNBOUND:                -0.632
REMARK SMILES Clc1ccc(C(c2ccc(Cl)cc2)C(Cl)(Cl)Cl)cc1
REMARK SMILES IDX 6 1 14 2 15 3 16 4 17 5 5 6 4 7 18 8 3 9 19 10 2 11 1 12
REMARK SMILES IDX 7 13 8 14 13 15 9 16 12 17 10 18 11 19
REMARK H PARENT
REMARK Flexibility Score: inf
ROOT
ATOM      1  C   UNL     1      -1.334   2.124  -1.295  1.00  0.00     0.101 C 
ENDROOT
BRANCH   1   2
ATOM      2  C   UNL     1      -1.773   1.303  -2.579  1.00  0.00     0.201 C 
ATOM      3  Cl  UNL     1      -1.034   1.876  -4.109  1.00  0.00    -0.083 Cl
ATOM      4  Cl  UNL     1      -3.569   1.446  -2.797  1.00  0.00    -0.083 Cl
ATOM      5  Cl  UNL     1      -1.433  -0.461  -2.412  1.00  0.00    -0.083 Cl
ENDBRANCH   1   2
BRANCH   1   6
ATOM      6  C   UNL     1      -1.728   3.562  -1.281  1.00  0.00    -0.036 A 
ATOM      7  C   UNL     1      -1.655   4.316  -2.452  1.00  0.00     0.006 A 
ATOM      8  C   UNL     1      -2.168   4.154  -0.097  1.00  0.00     0.006 A 
ATOM      9  C   UNL     1      -2.022   5.661  -2.440  1.00  0.00     0.021 A 
ATOM     10  C   UNL     1      -2.536   5.499  -0.084  1.00  0.00     0.021 A 
ATOM     11  C   UNL     1      -2.463   6.253  -1.255  1.00  0.00     0.041 A 
ATOM     12  Cl  UNL     1      -2.916   7.913  -1.239  1.00  0.00    -0.084 Cl
ENDBRANCH   1   6
BRANCH   1  13
ATOM     13  C   UNL     1       0.115   1.894  -0.795  1.00  0.00    -0.036 A 
ATOM     14  C   UNL     1       0.294   1.103   0.305  1.00  0.00     0.006 A 
ATOM     15  C   UNL     1       1.131   2.498  -1.481  1.00  0.00     0.006 A 
ATOM     16  C   UNL     1       1.598   0.898   0.756  1.00  0.00     0.021 A 
ATOM     17  C   UNL     1       2.435   2.293  -1.030  1.00  0.00     0.021 A 
ATOM     18  C   UNL     1       2.669   1.493   0.088  1.00  0.00     0.041 A 
ATOM     19  Cl  UNL     1       4.278   1.241   0.645  1.00  0.00    -0.084 Cl
ENDBRANCH   1  13
TORSDOF 3
ENDMDL
MODEL 2
REMARK VINA RESULT:    -6.493      0.690      1.348
REMARK INTER + INTRA:          -8.264
REMARK INTER:                  -7.665
REMARK INTRA:                  -0.599
REMARK UNBOUND:                -0.632
REMARK SMILES Clc1ccc(C(c2ccc(Cl)cc2)C(Cl)(Cl)Cl)cc1
REMARK SMILES IDX 6 1 14 2 15 3 16 4 17 5 5 6 4 7 18 8 3 9 19 10 2 11 1 12
REMARK SMILES IDX 7 13 8 14 13 15 9 16 12 17 10 18 11 19
REMARK H PARENT
REMARK Flexibility Score: inf
ROOT
ATOM      1  C   UNL     1      -1.358   1.613  -1.522  1.00  0.00     0.101 C 
ENDROOT
BRANCH   1   2
ATOM      2  C   UNL     1      -1.694   0.643  -2.732  1.00  0.00     0.201 C 
ATOM      3  Cl  UNL     1      -3.445   0.474  -3.079  1.00  0.00    -0.083 Cl
ATOM      4  Cl  UNL     1      -1.087  -1.024  -2.351  1.00  0.00    -0.083 Cl
ATOM      5  Cl  UNL     1      -0.861   1.137  -4.255  1.00  0.00    -0.083 Cl
ENDBRANCH   1   2
BRANCH   1   6
ATOM      6  C   UNL     1      -1.879   3.005  -1.647  1.00  0.00    -0.036 A 
ATOM      7  C   UNL     1      -2.001   3.593  -2.906  1.00  0.00     0.006 A 
ATOM      8  C   UNL     1      -2.243   3.719  -0.505  1.00  0.00     0.006 A 
ATOM      9  C   UNL     1      -2.486   4.896  -3.023  1.00  0.00     0.021 A 
ATOM     10  C   UNL     1      -2.730   5.021  -0.622  1.00  0.00     0.021 A 
ATOM     11  C   UNL     1      -2.851   5.609  -1.881  1.00  0.00     0.041 A 
ATOM     12  Cl  UNL     1      -3.450   7.217  -2.025  1.00  0.00    -0.084 Cl
ENDBRANCH   1   6
BRANCH   1  13
ATOM     13  C   UNL     1       0.093   1.562  -0.982  1.00  0.00    -0.036 A 
ATOM     14  C   UNL     1       0.330   0.830   0.148  1.00  0.00     0.006 A 
ATOM     15  C   UNL     1       1.054   2.253  -1.665  1.00  0.00     0.006 A 
ATOM     16  C   UNL     1       1.636   0.786   0.635  1.00  0.00     0.021 A 
ATOM     17  C   UNL     1       2.360   2.210  -1.177  1.00  0.00     0.021 A 
ATOM     18  C   UNL     1       2.651   1.475  -0.028  1.00  0.00     0.041 A 
ATOM     19  Cl  UNL     1       4.263   1.422   0.573  1.00  0.00    -0.084 Cl
ENDBRANCH   1  13
TORSDOF 3
ENDMDL
MODEL 3
REMARK VINA RESULT:    -6.416      2.321      4.666
REMARK INTER + INTRA:          -8.174
REMARK INTER:                  -7.601
REMARK INTRA:                  -0.572
REMARK UNBOUND:                -0.632
REMARK SMILES Clc1ccc(C(c2ccc(Cl)cc2)C(Cl)(Cl)Cl)cc1
REMARK SMILES IDX 6 1 14 2 15 3 16 4 17 5 5 6 4 7 18 8 3 9 19 10 2 11 1 12
REMARK SMILES IDX 7 13 8 14 13 15 9 16 12 17 10 18 11 19
REMARK H PARENT
REMARK Flexibility Score: inf
ROOT
ATOM      1  C   UNL     1      -0.167   1.487  -1.701  1.00  0.00     0.101 C 
ENDROOT
BRANCH   1   2
ATOM      2  C   UNL     1       0.217   0.924  -0.269  1.00  0.00     0.201 C 
ATOM      3  Cl  UNL     1      -0.829   1.515   1.062  1.00  0.00    -0.083 Cl
ATOM      4  Cl  UNL     1       1.907   1.440   0.145  1.00  0.00    -0.083 Cl
ATOM      5  Cl  UNL     1       0.225  -0.880  -0.224  1.00  0.00    -0.083 Cl
ENDBRANCH   1   2
BRANCH   1   6
ATOM      6  C   UNL     1      -0.105   2.969  -1.849  1.00  0.00    -0.036 A 
ATOM      7  C   UNL     1       0.473   3.532  -2.987  1.00  0.00     0.006 A 
ATOM      8  C   UNL     1      -0.623   3.794  -0.850  1.00  0.00     0.006 A 
ATOM      9  C   UNL     1       0.533   4.919  -3.126  1.00  0.00     0.021 A 
ATOM     10  C   UNL     1      -0.565   5.180  -0.989  1.00  0.00     0.021 A 
ATOM     11  C   UNL     1       0.014   5.743  -2.127  1.00  0.00     0.041 A 
ATOM     12  Cl  UNL     1       0.087   7.454  -2.298  1.00  0.00    -0.084 Cl
ENDBRANCH   1   6
BRANCH   1  13
ATOM     13  C   UNL     1      -1.422   0.870  -2.368  1.00  0.00    -0.036 A 
ATOM     14  C   UNL     1      -2.646   1.361  -2.008  1.00  0.00     0.006 A 
ATOM     15  C   UNL     1      -1.234  -0.133  -3.278  1.00  0.00     0.006 A 
ATOM     16  C   UNL     1      -3.775   0.804  -2.608  1.00  0.00     0.021 A 
ATOM     17  C   UNL     1      -2.364  -0.690  -3.878  1.00  0.00     0.021 A 
ATOM     18  C   UNL     1      -3.634  -0.221  -3.543  1.00  0.00     0.041 A 
ATOM     19  Cl  UNL     1      -5.028  -0.909  -4.283  1.00  0.00    -0.084 Cl
ENDBRANCH   1  13
TORSDOF 3
ENDMDL
MODEL 4
REMARK VINA RESULT:    -6.032      1.050      5.452
REMARK INTER + INTRA:          -7.722
REMARK INTER:                  -7.069
REMARK INTRA:                  -0.653
REMARK UNBOUND:                -0.632
REMARK SMILES Clc1ccc(C(c2ccc(Cl)cc2)C(Cl)(Cl)Cl)cc1
REMARK SMILES IDX 6 1 14 2 15 3 16 4 17 5 5 6 4 7 18 8 3 9 19 10 2 11 1 12
REMARK SMILES IDX 7 13 8 14 13 15 9 16 12 17 10 18 11 19
REMARK H PARENT
REMARK Flexibility Score: inf
ROOT
ATOM      1  C   UNL     1      -1.501   2.618  -2.481  1.00  0.00     0.101 C 
ENDROOT
BRANCH   1   2
ATOM      2  C   UNL     1      -2.664   1.561  -2.694  1.00  0.00     0.201 C 
ATOM      3  Cl  UNL     1      -2.131  -0.149  -2.614  1.00  0.00    -0.083 Cl
ATOM      4  Cl  UNL     1      -3.389   1.792  -4.341  1.00  0.00    -0.083 Cl
ATOM      5  Cl  UNL     1      -4.017   1.788  -1.521  1.00  0.00    -0.083 Cl
ENDBRANCH   1   2
BRANCH   1   6
ATOM      6  C   UNL     1      -0.422   2.208  -1.536  1.00  0.00    -0.036 A 
ATOM      7  C   UNL     1      -0.750   1.620  -0.315  1.00  0.00     0.006 A 
ATOM      8  C   UNL     1       0.916   2.415  -1.873  1.00  0.00     0.006 A 
ATOM      9  C   UNL     1       0.259   1.238   0.569  1.00  0.00     0.021 A 
ATOM     10  C   UNL     1       1.925   2.033  -0.990  1.00  0.00     0.021 A 
ATOM     11  C   UNL     1       1.597   1.444   0.231  1.00  0.00     0.041 A 
ATOM     12  Cl  UNL     1       2.842   0.973   1.322  1.00  0.00    -0.084 Cl
ENDBRANCH   1   6
BRANCH   1  13
ATOM     13  C   UNL     1      -1.938   4.092  -2.289  1.00  0.00    -0.036 A 
ATOM     14  C   UNL     1      -2.048   4.566  -1.011  1.00  0.00     0.006 A 
ATOM     15  C   UNL     1      -2.190   4.835  -3.408  1.00  0.00     0.006 A 
ATOM     16  C   UNL     1      -2.443   5.892  -0.840  1.00  0.00     0.021 A 
ATOM     17  C   UNL     1      -2.585   6.162  -3.236  1.00  0.00     0.021 A 
ATOM     18  C   UNL     1      -2.711   6.691  -1.951  1.00  0.00     0.041 A 
ATOM     19  Cl  UNL     1      -3.199   8.327  -1.739  1.00  0.00    -0.084 Cl
ENDBRANCH   1  13
TORSDOF 3
ENDMDL
MODEL 5
REMARK VINA RESULT:    -6.022      1.015      5.449
REMARK INTER + INTRA:          -7.711
REMARK INTER:                  -7.070
REMARK INTRA:                  -0.641
REMARK UNBOUND:                -0.632
REMARK SMILES Clc1ccc(C(c2ccc(Cl)cc2)C(Cl)(Cl)Cl)cc1
REMARK SMILES IDX 6 1 14 2 15 3 16 4 17 5 5 6 4 7 18 8 3 9 19 10 2 11 1 12
REMARK SMILES IDX 7 13 8 14 13 15 9 16 12 17 10 18 11 19
REMARK H PARENT
REMARK Flexibility Score: inf
ROOT
ATOM      1  C   UNL     1      -1.454   2.651  -2.476  1.00  0.00     0.101 C 
ENDROOT
BRANCH   1   2
ATOM      2  C   UNL     1      -2.616   1.594  -2.696  1.00  0.00     0.201 C 
ATOM      3  Cl  UNL     1      -2.084  -0.116  -2.617  1.00  0.00    -0.083 Cl
ATOM      4  Cl  UNL     1      -3.335   1.827  -4.345  1.00  0.00    -0.083 Cl
ATOM      5  Cl  UNL     1      -3.974   1.818  -1.528  1.00  0.00    -0.083 Cl
ENDBRANCH   1   2
BRANCH   1   6
ATOM      6  C   UNL     1      -0.362   2.227  -1.553  1.00  0.00    -0.036 A 
ATOM      7  C   UNL     1       0.970   2.433  -1.908  1.00  0.00     0.006 A 
ATOM      8  C   UNL     1      -0.674   1.622  -0.334  1.00  0.00     0.006 A 
ATOM      9  C   UNL     1       1.992   2.035  -1.045  1.00  0.00     0.021 A 
ATOM     10  C   UNL     1       0.347   1.225   0.529  1.00  0.00     0.021 A 
ATOM     11  C   UNL     1       1.680   1.431   0.173  1.00  0.00     0.041 A 
ATOM     12  Cl  UNL     1       2.940   0.940   1.238  1.00  0.00    -0.084 Cl
ENDBRANCH   1   6
BRANCH   1  13
ATOM     13  C   UNL     1      -1.894   4.119  -2.250  1.00  0.00    -0.036 A 
ATOM     14  C   UNL     1      -2.053   4.916  -3.349  1.00  0.00     0.006 A 
ATOM     15  C   UNL     1      -2.096   4.535  -0.963  1.00  0.00     0.006 A 
ATOM     16  C   UNL     1      -2.447   6.238  -3.145  1.00  0.00     0.021 A 
ATOM     17  C   UNL     1      -2.489   5.858  -0.759  1.00  0.00     0.021 A 
ATOM     18  C   UNL     1      -2.666   6.709  -1.850  1.00  0.00     0.041 A 
ATOM     19  Cl  UNL     1      -3.151   8.341  -1.598  1.00  0.00    -0.084 Cl
ENDBRANCH   1  13
TORSDOF 3
ENDMDL
