MODEL 1
REMARK VINA RESULT:    -6.491      0.000      0.000
REMARK INTER + INTRA:         -12.345
REMARK INTER:                  -9.147
REMARK INTRA:                  -3.198
REMARK UNBOUND:                -3.198
REMARK SMILES CC1(C)[C@H](C=C(Cl)Cl)[C@H]1C(=O)OCc1cccc(Oc2ccccc2)c1
REMARK SMILES IDX 13 1 12 2 10 3 11 4 9 5 4 6 2 7 1 8 3 9 5 10 7 11 6 12 8 13
REMARK SMILES IDX 14 14 26 15 15 16 18 17 16 18 17 19 19 20 20 21 21 22 25 23
REMARK SMILES IDX 22 24 24 25 23 26
REMARK H PARENT
REMARK Flexibility Score: inf
ROOT
ATOM      1  C   UNL     1      -0.318   6.749  -3.316  1.00  0.00     0.268 C 
ENDROOT
BRANCH   1   2
ATOM      2  O   UNL     1      -0.132   5.373  -3.008  1.00  0.00    -0.461 OA
BRANCH   2   3
ATOM      3  C   UNL     1       0.122   5.087  -1.698  1.00  0.00     0.310 C 
ATOM      4  O   UNL     1       0.761   5.773  -0.913  1.00  0.00    -0.252 OA
BRANCH   3   5
ATOM      5  C   UNL     1      -0.481   3.794  -1.288  1.00  0.00     0.113 C 
ATOM      6  C   UNL     1      -1.674   3.297  -2.040  1.00  0.00     0.035 C 
ATOM      7  C   UNL     1      -1.821   3.770  -0.623  1.00  0.00    -0.014 C 
ATOM      8  C   UNL     1      -2.106   2.739   0.417  1.00  0.00     0.012 C 
ATOM      9  C   UNL     1      -2.465   5.086  -0.343  1.00  0.00     0.012 C 
BRANCH   6  10
ATOM     10  C   UNL     1      -1.749   1.878  -2.356  1.00  0.00     0.011 C 
ATOM     11  Cl  UNL     1      -0.144   2.042  -4.514  1.00  0.00    -0.071 Cl
ATOM     12  C   UNL     1      -1.151   1.232  -3.369  1.00  0.00     0.103 C 
ATOM     13  Cl  UNL     1      -1.372  -0.471  -3.571  1.00  0.00    -0.071 Cl
ENDBRANCH   6  10
ENDBRANCH   3   5
ENDBRANCH   2   3
ENDBRANCH   1   2
BRANCH   1  14
ATOM     14  C   UNL     1      -1.750   7.114  -3.117  1.00  0.00    -0.007 A 
ATOM     15  C   UNL     1      -2.754   6.339  -3.699  1.00  0.00     0.054 A 
ATOM     16  C   UNL     1      -2.086   8.229  -2.349  1.00  0.00     0.007 A 
ATOM     17  C   UNL     1      -4.093   6.680  -3.513  1.00  0.00     0.127 A 
ATOM     18  C   UNL     1      -3.425   8.570  -2.164  1.00  0.00     0.004 A 
ATOM     19  C   UNL     1      -4.428   7.795  -2.745  1.00  0.00     0.047 A 
BRANCH  17  20
ATOM     20  O   UNL     1      -5.073   5.925  -4.080  1.00  0.00    -0.457 OA
BRANCH  20  21
ATOM     21  C   UNL     1      -5.146   4.590  -3.722  1.00  0.00     0.127 A 
ATOM     22  C   UNL     1      -4.837   3.622  -4.663  1.00  0.00     0.047 A 
ATOM     23  C   UNL     1      -5.525   4.256  -2.436  1.00  0.00     0.047 A 
ATOM     24  C   UNL     1      -4.911   2.278  -4.303  1.00  0.00     0.004 A 
ATOM     25  C   UNL     1      -5.598   2.910  -2.076  1.00  0.00     0.004 A 
ATOM     26  C   UNL     1      -5.290   1.921  -3.009  1.00  0.00     0.000 A 
ENDBRANCH  20  21
ENDBRANCH  17  20
ENDBRANCH   1  14
TORSDOF 7
ENDMDL
MODEL 2
REMARK VINA RESULT:    -6.346      3.352      5.391
REMARK INTER + INTRA:         -12.141
REMARK INTER:                 -10.015
REMARK INTRA:                  -2.127
REMARK UNBOUND:                -3.198
REMARK SMILES CC1(C)[C@H](C=C(Cl)Cl)[C@H]1C(=O)OCc1cccc(Oc2ccccc2)c1
REMARK SMILES IDX 13 1 12 2 10 3 11 4 9 5 4 6 2 7 1 8 3 9 5 10 7 11 6 12 8 13
REMARK SMILES IDX 14 14 26 15 15 16 18 17 16 18 17 19 19 20 20 21 21 22 25 23
REMARK SMILES IDX 22 24 24 25 23 26
REMARK H PARENT
REMARK Flexibility Score: inf
ROOT
ATOM      1  C   UNL     1      -2.768   3.626   0.079  1.00  0.00     0.268 C 
ENDROOT
BRANCH   1   2
ATOM      2  O   UNL     1      -2.340   4.967  -0.125  1.00  0.00    -0.461 OA
BRANCH   2   3
ATOM      3  C   UNL     1      -1.202   5.121  -0.862  1.00  0.00     0.310 C 
ATOM      4  O   UNL     1      -0.198   4.425  -0.807  1.00  0.00    -0.252 OA
BRANCH   3   5
ATOM      5  C   UNL     1      -1.297   6.276  -1.790  1.00  0.00     0.113 C 
ATOM      6  C   UNL     1      -2.636   6.619  -2.361  1.00  0.00     0.035 C 
ATOM      7  C   UNL     1      -1.565   6.049  -3.244  1.00  0.00    -0.014 C 
ATOM      8  C   UNL     1      -0.952   6.959  -4.255  1.00  0.00     0.012 C 
ATOM      9  C   UNL     1      -1.659   4.633  -3.705  1.00  0.00     0.012 C 
BRANCH   6  10
ATOM     10  C   UNL     1      -3.004   8.024  -2.462  1.00  0.00     0.011 C 
ATOM     11  Cl  UNL     1      -5.618   7.542  -2.900  1.00  0.00    -0.071 Cl
ATOM     12  C   UNL     1      -4.223   8.537  -2.686  1.00  0.00     0.103 C 
ATOM     13  Cl  UNL     1      -4.449  10.249  -2.773  1.00  0.00    -0.071 Cl
ENDBRANCH   6  10
ENDBRANCH   3   5
ENDBRANCH   2   3
ENDBRANCH   1   2
BRANCH   1  14
ATOM     14  C   UNL     1      -3.741   3.248  -0.986  1.00  0.00    -0.007 A 
ATOM     15  C   UNL     1      -4.824   4.081  -1.268  1.00  0.00     0.054 A 
ATOM     16  C   UNL     1      -3.567   2.063  -1.701  1.00  0.00     0.007 A 
ATOM     17  C   UNL     1      -5.733   3.727  -2.265  1.00  0.00     0.127 A 
ATOM     18  C   UNL     1      -4.477   1.710  -2.697  1.00  0.00     0.004 A 
ATOM     19  C   UNL     1      -5.560   2.542  -2.979  1.00  0.00     0.047 A 
BRANCH  17  20
ATOM     20  O   UNL     1      -6.790   4.540  -2.541  1.00  0.00    -0.457 OA
BRANCH  20  21
ATOM     21  C   UNL     1      -7.820   4.593  -1.618  1.00  0.00     0.127 A 
ATOM     22  C   UNL     1      -8.151   5.810  -1.046  1.00  0.00     0.047 A 
ATOM     23  C   UNL     1      -8.492   3.430  -1.290  1.00  0.00     0.047 A 
ATOM     24  C   UNL     1      -9.188   5.863  -0.117  1.00  0.00     0.004 A 
ATOM     25  C   UNL     1      -9.531   3.485  -0.359  1.00  0.00     0.004 A 
ATOM     26  C   UNL     1      -9.879   4.702   0.227  1.00  0.00     0.000 A 
ENDBRANCH  20  21
ENDBRANCH  17  20
ENDBRANCH   1  14
TORSDOF 7
ENDMDL
MODEL 3
REMARK VINA RESULT:    -6.078      2.676      5.092
REMARK INTER + INTRA:         -11.763
REMARK INTER:                  -8.505
REMARK INTRA:                  -3.258
REMARK UNBOUND:                -3.198
REMARK SMILES CC1(C)[C@H](C=C(Cl)Cl)[C@H]1C(=O)OCc1cccc(Oc2ccccc2)c1
REMARK SMILES IDX 13 1 12 2 10 3 11 4 9 5 4 6 2 7 1 8 3 9 5 10 7 11 6 12 8 13
REMARK SMILES IDX 14 14 26 15 15 16 18 17 16 18 17 19 19 20 20 21 21 22 25 23
REMARK SMILES IDX 22 24 24 25 23 26
REMARK H PARENT
REMARK Flexibility Score: inf
ROOT
ATOM      1  C   UNL     1      -0.322   1.481  -0.541  1.00  0.00     0.268 C 
ENDROOT
BRANCH   1   2
ATOM      2  O   UNL     1      -0.101   2.883  -0.618  1.00  0.00    -0.461 OA
BRANCH   2   3
ATOM      3  C   UNL     1       0.870   3.286  -1.488  1.00  0.00     0.310 C 
ATOM      4  O   UNL     1       1.938   2.729  -1.696  1.00  0.00    -0.252 OA
BRANCH   3   5
ATOM      5  C   UNL     1       0.490   4.530  -2.204  1.00  0.00     0.113 C 
ATOM      6  C   UNL     1      -0.954   4.748  -2.531  1.00  0.00     0.035 C 
ATOM      7  C   UNL     1       0.033   4.467  -3.626  1.00  0.00    -0.014 C 
ATOM      8  C   UNL     1       0.364   5.587  -4.555  1.00  0.00     0.012 C 
ATOM      9  C   UNL     1       0.047   3.129  -4.286  1.00  0.00     0.012 C 
BRANCH   6  10
ATOM     10  C   UNL     1      -1.505   6.084  -2.360  1.00  0.00     0.011 C 
ATOM     11  Cl  UNL     1      -2.543   5.591   0.077  1.00  0.00    -0.071 Cl
ATOM     12  C   UNL     1      -2.192   6.559  -1.310  1.00  0.00     0.103 C 
ATOM     13  Cl  UNL     1      -2.768   8.189  -1.305  1.00  0.00    -0.071 Cl
ENDBRANCH   6  10
ENDBRANCH   3   5
ENDBRANCH   2   3
ENDBRANCH   1   2
BRANCH   1  14
ATOM     14  C   UNL     1      -1.314   1.077  -1.579  1.00  0.00    -0.007 A 
ATOM     15  C   UNL     1      -2.560   1.701  -1.632  1.00  0.00     0.054 A 
ATOM     16  C   UNL     1      -0.994   0.076  -2.496  1.00  0.00     0.007 A 
ATOM     17  C   UNL     1      -3.487   1.323  -2.603  1.00  0.00     0.127 A 
ATOM     18  C   UNL     1      -1.922  -0.302  -3.467  1.00  0.00     0.004 A 
ATOM     19  C   UNL     1      -3.168   0.322  -3.520  1.00  0.00     0.047 A 
BRANCH  17  20
ATOM     20  O   UNL     1      -4.704   1.932  -2.655  1.00  0.00    -0.457 OA
BRANCH  20  21
ATOM     21  C   UNL     1      -4.746   3.254  -3.062  1.00  0.00     0.127 A 
ATOM     22  C   UNL     1      -4.134   3.612  -4.251  1.00  0.00     0.047 A 
ATOM     23  C   UNL     1      -5.397   4.183  -2.272  1.00  0.00     0.047 A 
ATOM     24  C   UNL     1      -4.176   4.944  -4.662  1.00  0.00     0.004 A 
ATOM     25  C   UNL     1      -5.439   5.515  -2.684  1.00  0.00     0.004 A 
ATOM     26  C   UNL     1      -4.829   5.896  -3.879  1.00  0.00     0.000 A 
ENDBRANCH  20  21
ENDBRANCH  17  20
ENDBRANCH   1  14
TORSDOF 7
ENDMDL
MODEL 4
REMARK VINA RESULT:    -6.051      2.645      4.847
REMARK INTER + INTRA:         -11.725
REMARK INTER:                  -9.775
REMARK INTRA:                  -1.950
REMARK UNBOUND:                -3.198
REMARK SMILES CC1(C)[C@H](C=C(Cl)Cl)[C@H]1C(=O)OCc1cccc(Oc2ccccc2)c1
REMARK SMILES IDX 13 1 12 2 10 3 11 4 9 5 4 6 2 7 1 8 3 9 5 10 7 11 6 12 8 13
REMARK SMILES IDX 14 14 26 15 15 16 18 17 16 18 17 19 19 20 20 21 21 22 25 23
REMARK SMILES IDX 22 24 24 25 23 26
REMARK H PARENT
REMARK Flexibility Score: inf
ROOT
ATOM      1  C   UNL     1      -3.721   1.098  -4.479  1.00  0.00     0.268 C 
ENDROOT
BRANCH   1   2
ATOM      2  O   UNL     1      -2.343   1.245  -4.160  1.00  0.00    -0.461 OA
BRANCH   2   3
ATOM      3  C   UNL     1      -1.945   0.692  -2.977  1.00  0.00     0.310 C 
ATOM      4  O   UNL     1      -2.351  -0.352  -2.488  1.00  0.00    -0.252 OA
BRANCH   3   5
ATOM      5  C   UNL     1      -0.915   1.520  -2.299  1.00  0.00     0.113 C 
ATOM      6  C   UNL     1      -0.528   1.162  -0.899  1.00  0.00     0.035 C 
ATOM      7  C   UNL     1      -1.303   2.419  -1.168  1.00  0.00    -0.014 C 
ATOM      8  C   UNL     1      -0.590   3.717  -0.985  1.00  0.00     0.012 C 
ATOM      9  C   UNL     1      -2.751   2.487  -0.818  1.00  0.00     0.012 C 
BRANCH   6  10
ATOM     10  C   UNL     1       0.881   1.228  -0.536  1.00  0.00     0.011 C 
ATOM     11  Cl  UNL     1       0.455   0.813   2.092  1.00  0.00    -0.071 Cl
ATOM     12  C   UNL     1       1.418   1.097   0.687  1.00  0.00     0.103 C 
ATOM     13  Cl  UNL     1       3.129   1.211   0.907  1.00  0.00    -0.071 Cl
ENDBRANCH   6  10
ENDBRANCH   3   5
ENDBRANCH   2   3
ENDBRANCH   1   2
BRANCH   1  14
ATOM     14  C   UNL     1      -4.487   2.243  -3.909  1.00  0.00    -0.007 A 
ATOM     15  C   UNL     1      -4.200   3.546  -4.315  1.00  0.00     0.054 A 
ATOM     16  C   UNL     1      -5.492   2.011  -2.969  1.00  0.00     0.007 A 
ATOM     17  C   UNL     1      -4.917   4.617  -3.781  1.00  0.00     0.127 A 
ATOM     18  C   UNL     1      -6.208   3.081  -2.435  1.00  0.00     0.004 A 
ATOM     19  C   UNL     1      -5.921   4.384  -2.842  1.00  0.00     0.047 A 
BRANCH  17  20
ATOM     20  O   UNL     1      -4.637   5.889  -4.177  1.00  0.00    -0.457 OA
BRANCH  20  21
ATOM     21  C   UNL     1      -4.024   6.728  -3.263  1.00  0.00     0.127 A 
ATOM     22  C   UNL     1      -4.571   7.976  -3.022  1.00  0.00     0.047 A 
ATOM     23  C   UNL     1      -2.881   6.299  -2.615  1.00  0.00     0.047 A 
ATOM     24  C   UNL     1      -3.953   8.822  -2.102  1.00  0.00     0.004 A 
ATOM     25  C   UNL     1      -2.263   7.145  -1.693  1.00  0.00     0.004 A 
ATOM     26  C   UNL     1      -2.800   8.407  -1.437  1.00  0.00     0.000 A 
ENDBRANCH  20  21
ENDBRANCH  17  20
ENDBRANCH   1  14
TORSDOF 7
ENDMDL
MODEL 5
REMARK VINA RESULT:    -5.953      2.834      6.067
REMARK INTER + INTRA:         -11.587
REMARK INTER:                  -8.708
REMARK INTRA:                  -2.879
REMARK UNBOUND:                -3.198
REMARK SMILES CC1(C)[C@H](C=C(Cl)Cl)[C@H]1C(=O)OCc1cccc(Oc2ccccc2)c1
REMARK SMILES IDX 13 1 12 2 10 3 11 4 9 5 4 6 2 7 1 8 3 9 5 10 7 11 6 12 8 13
REMARK SMILES IDX 14 14 26 15 15 16 18 17 16 18 17 19 19 20 20 21 21 22 25 23
REMARK SMILES IDX 22 24 24 25 23 26
REMARK H PARENT
REMARK Flexibility Score: inf
ROOT
ATOM      1  C   UNL     1      -5.445   2.647  -3.987  1.00  0.00     0.268 C 
ENDROOT
BRANCH   1   2
ATOM      2  O   UNL     1      -4.619   3.699  -3.505  1.00  0.00    -0.461 OA
BRANCH   2   3
ATOM      3  C   UNL     1      -5.019   4.282  -2.337  1.00  0.00     0.310 C 
ATOM      4  O   UNL     1      -6.158   4.317  -1.893  1.00  0.00    -0.252 OA
BRANCH   3   5
ATOM      5  C   UNL     1      -3.882   4.904  -1.612  1.00  0.00     0.113 C 
ATOM      6  C   UNL     1      -2.492   4.585  -2.065  1.00  0.00     0.035 C 
ATOM      7  C   UNL     1      -2.994   4.064  -0.750  1.00  0.00    -0.014 C 
ATOM      8  C   UNL     1      -2.406   4.649   0.490  1.00  0.00     0.012 C 
ATOM      9  C   UNL     1      -3.348   2.621  -0.611  1.00  0.00     0.012 C 
BRANCH   6  10
ATOM     10  C   UNL     1      -1.516   5.665  -2.106  1.00  0.00     0.011 C 
ATOM     11  Cl  UNL     1      -2.509   6.781  -4.349  1.00  0.00    -0.071 Cl
ATOM     12  C   UNL     1      -1.420   6.648  -3.015  1.00  0.00     0.103 C 
ATOM     13  Cl  UNL     1      -0.176   7.841  -2.883  1.00  0.00    -0.071 Cl
ENDBRANCH   6  10
ENDBRANCH   3   5
ENDBRANCH   2   3
ENDBRANCH   1   2
BRANCH   1  14
ATOM     14  C   UNL     1      -4.635   1.403  -4.124  1.00  0.00    -0.007 A 
ATOM     15  C   UNL     1      -3.244   1.465  -4.046  1.00  0.00     0.054 A 
ATOM     16  C   UNL     1      -5.269   0.178  -4.329  1.00  0.00     0.007 A 
ATOM     17  C   UNL     1      -2.487   0.300  -4.174  1.00  0.00     0.127 A 
ATOM     18  C   UNL     1      -4.512  -0.986  -4.458  1.00  0.00     0.004 A 
ATOM     19  C   UNL     1      -3.121  -0.925  -4.380  1.00  0.00     0.047 A 
BRANCH  17  20
ATOM     20  O   UNL     1      -1.129   0.360  -4.098  1.00  0.00    -0.457 OA
BRANCH  20  21
ATOM     21  C   UNL     1      -0.570   0.862  -2.935  1.00  0.00     0.127 A 
ATOM     22  C   UNL     1      -0.635   0.107  -1.776  1.00  0.00     0.047 A 
ATOM     23  C   UNL     1       0.037   2.103  -2.960  1.00  0.00     0.047 A 
ATOM     24  C   UNL     1      -0.072   0.612  -0.605  1.00  0.00     0.004 A 
ATOM     25  C   UNL     1       0.601   2.608  -1.787  1.00  0.00     0.004 A 
ATOM     26  C   UNL     1       0.546   1.862  -0.610  1.00  0.00     0.000 A 
ENDBRANCH  20  21
ENDBRANCH  17  20
ENDBRANCH   1  14
TORSDOF 7
ENDMDL
