MODEL 1
REMARK VINA RESULT:    -6.896      0.000      0.000
REMARK INTER + INTRA:         -11.375
REMARK INTER:                 -10.122
REMARK INTRA:                  -1.253
REMARK UNBOUND:                -1.253
REMARK SMILES CC1(C)C(C=C(Br)Br)C1C(=O)OC(C#N)c1cccc(Oc2ccccc2)c1
REMARK SMILES IDX 13 1 12 2 10 3 11 4 9 5 4 6 2 7 1 8 3 9 5 10 7 11 6 12 8 13
REMARK SMILES IDX 16 14 28 15 17 16 20 17 18 18 19 19 21 20 22 21 23 22 27 23
REMARK SMILES IDX 24 24 26 25 25 26 14 27 15 28
REMARK H PARENT
REMARK Flexibility Score: inf
ROOT
ATOM      1  C   UNL     1      -4.696   1.410  -2.886  1.00  0.00     0.309 C
ENDROOT
BRANCH   1   2
ATOM      2  O   UNL     1      -3.376   1.662  -3.388  1.00  0.00    -0.442 OA
BRANCH   2   3
ATOM      3  C   UNL     1      -2.411   1.798  -2.440  1.00  0.00     0.311 C
ATOM      4  O   UNL     1      -1.811   0.902  -1.864  1.00  0.00    -0.252 OA
BRANCH   3   5
ATOM      5  C   UNL     1      -2.134   3.229  -2.151  1.00  0.00     0.113 C
ATOM      6  C   UNL     1      -1.118   3.558  -1.105  1.00  0.00     0.035 C
ATOM      7  C   UNL     1      -2.572   3.828  -0.853  1.00  0.00    -0.014 C
ATOM      8  C   UNL     1      -3.263   2.971   0.155  1.00  0.00     0.012 C
ATOM      9  C   UNL     1      -3.082   5.231  -0.892  1.00  0.00     0.012 C
BRANCH   6  10
ATOM     10  C   UNL     1      -0.443   2.462  -0.428  1.00  0.00     0.001 C
ATOM     11  Br  UNL     1       2.013   2.819  -1.814  1.00  0.00    -0.043 Br
ATOM     12  C   UNL     1       0.820   2.036  -0.602  1.00  0.00     0.057 C
ATOM     13  Br  UNL     1       1.500   0.592   0.382  1.00  0.00    -0.043 Br
ENDBRANCH   6  10
ENDBRANCH   3   5
ENDBRANCH   2   3
ENDBRANCH   1   2
BRANCH   1  14
ATOM     14  C   UNL     1      -5.475   2.679  -2.843  1.00  0.00     0.011 A
ATOM     15  C   UNL     1      -5.082   3.767  -3.625  1.00  0.00     0.055 A
ATOM     16  C   UNL     1      -6.598   2.781  -2.022  1.00  0.00     0.009 A
ATOM     17  C   UNL     1      -5.812   4.954  -3.584  1.00  0.00     0.127 A
ATOM     18  C   UNL     1      -7.327   3.970  -1.982  1.00  0.00     0.004 A
ATOM     19  C   UNL     1      -6.934   5.056  -2.762  1.00  0.00     0.047 A
BRANCH  17  20
ATOM     20  O   UNL     1      -5.428   6.016  -4.346  1.00  0.00    -0.457 OA
BRANCH  20  21
ATOM     21  C   UNL     1      -4.388   6.801  -3.877  1.00  0.00     0.127 A
ATOM     22  C   UNL     1      -3.105   6.560  -4.332  1.00  0.00     0.047 A
ATOM     23  C   UNL     1      -4.660   7.807  -2.966  1.00  0.00     0.047 A
ATOM     24  C   UNL     1      -2.056   7.351  -3.860  1.00  0.00     0.004 A
ATOM     25  C   UNL     1      -3.612   8.596  -2.494  1.00  0.00     0.004 A
ATOM     26  C   UNL     1      -2.310   8.370  -2.941  1.00  0.00     0.000 A
ENDBRANCH  20  21
ENDBRANCH  17  20
ENDBRANCH   1  14
BRANCH   1  27
ATOM     27  C   UNL     1      -5.344   0.373  -3.716  1.00  0.00     0.113 C
ATOM     28  N   UNL     1      -5.864  -0.437  -4.363  1.00  0.00    -0.194 NA
ENDBRANCH   1  27
TORSDOF 8
ENDMDL
MODEL 2
REMARK VINA RESULT:    -6.860      1.601      2.297
REMARK INTER + INTRA:         -11.321
REMARK INTER:                  -9.831
REMARK INTRA:                  -1.490
REMARK UNBOUND:                -1.253
REMARK SMILES CC1(C)C(C=C(Br)Br)C1C(=O)OC(C#N)c1cccc(Oc2ccccc2)c1
REMARK SMILES IDX 13 1 12 2 10 3 11 4 9 5 4 6 2 7 1 8 3 9 5 10 7 11 6 12 8 13
REMARK SMILES IDX 16 14 28 15 17 16 20 17 18 18 19 19 21 20 22 21 23 22 27 23
REMARK SMILES IDX 24 24 26 25 25 26 14 27 15 28
REMARK H PARENT
REMARK Flexibility Score: inf
ROOT
ATOM      1  C   UNL     1      -4.430   1.202  -2.890  1.00  0.00     0.309 C
ENDROOT
BRANCH   1   2
ATOM      2  O   UNL     1      -3.075   1.311  -3.346  1.00  0.00    -0.442 OA
BRANCH   2   3
ATOM      3  C   UNL     1      -2.134   0.822  -2.495  1.00  0.00     0.311 C
ATOM      4  O   UNL     1      -1.401  -0.140  -2.680  1.00  0.00    -0.252 OA
BRANCH   3   5
ATOM      5  C   UNL     1      -2.075   1.614  -1.239  1.00  0.00     0.113 C
ATOM      6  C   UNL     1      -1.231   2.848  -1.218  1.00  0.00     0.035 C
ATOM      7  C   UNL     1      -0.819   1.640  -0.429  1.00  0.00    -0.014 C
ATOM      8  C   UNL     1       0.379   0.888  -0.907  1.00  0.00     0.012 C
ATOM      9  C   UNL     1      -0.970   1.638   1.055  1.00  0.00     0.012 C
BRANCH   6  10
ATOM     10  C   UNL     1      -0.517   3.219  -2.430  1.00  0.00     0.001 C
ATOM     11  Br  UNL     1       0.346   5.733  -1.424  1.00  0.00    -0.043 Br
ATOM     12  C   UNL     1       0.170   4.349  -2.671  1.00  0.00     0.057 C
ATOM     13  Br  UNL     1       1.025   4.629  -4.316  1.00  0.00    -0.043 Br
ENDBRANCH   6  10
ENDBRANCH   3   5
ENDBRANCH   2   3
ENDBRANCH   1   2
BRANCH   1  14
ATOM     14  C   UNL     1      -5.096   2.534  -2.952  1.00  0.00     0.011 A
ATOM     15  C   UNL     1      -4.591   3.529  -3.789  1.00  0.00     0.055 A
ATOM     16  C   UNL     1      -6.227   2.785  -2.175  1.00  0.00     0.009 A
ATOM     17  C   UNL     1      -5.215   4.775  -3.847  1.00  0.00     0.127 A
ATOM     18  C   UNL     1      -6.850   4.031  -2.233  1.00  0.00     0.004 A
ATOM     19  C   UNL     1      -6.344   5.026  -3.069  1.00  0.00     0.047 A
BRANCH  17  20
ATOM     20  O   UNL     1      -4.721   5.747  -4.663  1.00  0.00    -0.457 OA
BRANCH  20  21
ATOM     21  C   UNL     1      -3.773   6.608  -4.136  1.00  0.00     0.127 A
ATOM     22  C   UNL     1      -4.143   7.484  -3.132  1.00  0.00     0.047 A
ATOM     23  C   UNL     1      -2.481   6.571  -4.629  1.00  0.00     0.047 A
ATOM     24  C   UNL     1      -3.188   8.353  -2.601  1.00  0.00     0.004 A
ATOM     25  C   UNL     1      -1.527   7.439  -4.099  1.00  0.00     0.004 A
ATOM     26  C   UNL     1      -1.880   8.329  -3.084  1.00  0.00     0.000 A
ENDBRANCH  20  21
ENDBRANCH  17  20
ENDBRANCH   1  14
BRANCH   1  27
ATOM     27  C   UNL     1      -5.133   0.177  -3.688  1.00  0.00     0.113 C
ATOM     28  N   UNL     1      -5.694  -0.629  -4.307  1.00  0.00    -0.194 NA
ENDBRANCH   1  27
TORSDOF 8
ENDMDL
MODEL 3
REMARK VINA RESULT:    -6.839      3.573      5.406
REMARK INTER + INTRA:         -11.291
REMARK INTER:                 -10.195
REMARK INTRA:                  -1.095
REMARK UNBOUND:                -1.253
REMARK SMILES CC1(C)C(C=C(Br)Br)C1C(=O)OC(C#N)c1cccc(Oc2ccccc2)c1
REMARK SMILES IDX 13 1 12 2 10 3 11 4 9 5 4 6 2 7 1 8 3 9 5 10 7 11 6 12 8 13
REMARK SMILES IDX 16 14 28 15 17 16 20 17 18 18 19 19 21 20 22 21 23 22 27 23
REMARK SMILES IDX 24 24 26 25 25 26 14 27 15 28
REMARK H PARENT
REMARK Flexibility Score: inf
ROOT
ATOM      1  C   UNL     1       1.076   3.380  -4.137  1.00  0.00     0.309 C
ENDROOT
BRANCH   1   2
ATOM      2  O   UNL     1       0.783   2.196  -3.382  1.00  0.00    -0.442 OA
BRANCH   2   3
ATOM      3  C   UNL     1      -0.368   1.558  -3.725  1.00  0.00     0.311 C
ATOM      4  O   UNL     1      -1.130   1.852  -4.634  1.00  0.00    -0.252 OA
BRANCH   3   5
ATOM      5  C   UNL     1      -0.629   0.397  -2.835  1.00  0.00     0.113 C
ATOM      6  C   UNL     1      -1.930   0.345  -2.100  1.00  0.00     0.035 C
ATOM      7  C   UNL     1      -0.652   0.582  -1.351  1.00  0.00    -0.014 C
ATOM      8  C   UNL     1      -0.438   1.944  -0.778  1.00  0.00     0.012 C
ATOM      9  C   UNL     1      -0.066  -0.512  -0.523  1.00  0.00     0.012 C
BRANCH   6  10
ATOM     10  C   UNL     1      -2.881   1.428  -2.300  1.00  0.00     0.001 C
ATOM     11  Br  UNL     1      -4.763  -0.179  -3.699  1.00  0.00    -0.043 Br
ATOM     12  C   UNL     1      -4.069   1.379  -2.926  1.00  0.00     0.057 C
ATOM     13  Br  UNL     1      -5.150   2.905  -3.074  1.00  0.00    -0.043 Br
ENDBRANCH   6  10
ENDBRANCH   3   5
ENDBRANCH   2   3
ENDBRANCH   1   2
BRANCH   1  14
ATOM     14  C   UNL     1       0.609   4.585  -3.396  1.00  0.00     0.011 A
ATOM     15  C   UNL     1      -0.142   5.561  -4.052  1.00  0.00     0.055 A
ATOM     16  C   UNL     1       0.921   4.737  -2.045  1.00  0.00     0.009 A
ATOM     17  C   UNL     1      -0.579   6.688  -3.357  1.00  0.00     0.127 A
ATOM     18  C   UNL     1       0.483   5.865  -1.351  1.00  0.00     0.004 A
ATOM     19  C   UNL     1      -0.266   6.841  -2.007  1.00  0.00     0.047 A
BRANCH  17  20
ATOM     20  O   UNL     1      -1.311   7.641  -3.997  1.00  0.00    -0.457 OA
BRANCH  20  21
ATOM     21  C   UNL     1      -2.621   7.830  -3.587  1.00  0.00     0.127 A
ATOM     22  C   UNL     1      -3.488   6.752  -3.584  1.00  0.00     0.047 A
ATOM     23  C   UNL     1      -3.028   9.091  -3.190  1.00  0.00     0.047 A
ATOM     24  C   UNL     1      -4.807   6.942  -3.172  1.00  0.00     0.004 A
ATOM     25  C   UNL     1      -4.346   9.281  -2.778  1.00  0.00     0.004 A
ATOM     26  C   UNL     1      -5.236   8.206  -2.768  1.00  0.00     0.000 A
ENDBRANCH  20  21
ENDBRANCH  17  20
ENDBRANCH   1  14
BRANCH   1  27
ATOM     27  C   UNL     1       2.522   3.422  -4.438  1.00  0.00     0.113 C
ATOM     28  N   UNL     1       3.660   3.454  -4.663  1.00  0.00    -0.194 NA
ENDBRANCH   1  27
TORSDOF 8
ENDMDL
MODEL 4
REMARK VINA RESULT:    -6.812      3.020      4.992
REMARK INTER + INTRA:         -11.251
REMARK INTER:                  -9.876
REMARK INTRA:                  -1.375
REMARK UNBOUND:                -1.253
REMARK SMILES CC1(C)C(C=C(Br)Br)C1C(=O)OC(C#N)c1cccc(Oc2ccccc2)c1
REMARK SMILES IDX 13 1 12 2 10 3 11 4 9 5 4 6 2 7 1 8 3 9 5 10 7 11 6 12 8 13
REMARK SMILES IDX 16 14 28 15 17 16 20 17 18 18 19 19 21 20 22 21 23 22 27 23
REMARK SMILES IDX 24 24 26 25 25 26 14 27 15 28
REMARK H PARENT
REMARK Flexibility Score: inf
ROOT
ATOM      1  C   UNL     1       0.871   2.717  -2.864  1.00  0.00     0.309 C
ENDROOT
BRANCH   1   2
ATOM      2  O   UNL     1      -0.294   1.954  -2.521  1.00  0.00    -0.442 OA
BRANCH   2   3
ATOM      3  C   UNL     1      -0.963   1.410  -3.573  1.00  0.00     0.311 C
ATOM      4  O   UNL     1      -0.562   0.539  -4.331  1.00  0.00    -0.252 OA
BRANCH   3   5
ATOM      5  C   UNL     1      -2.313   2.013  -3.725  1.00  0.00     0.113 C
ATOM      6  C   UNL     1      -3.121   2.262  -2.492  1.00  0.00     0.035 C
ATOM      7  C   UNL     1      -3.533   1.191  -3.458  1.00  0.00    -0.014 C
ATOM      8  C   UNL     1      -3.382  -0.226  -3.014  1.00  0.00     0.012 C
ATOM      9  C   UNL     1      -4.708   1.412  -4.352  1.00  0.00     0.012 C
BRANCH   6  10
ATOM     10  C   UNL     1      -2.543   1.913  -1.203  1.00  0.00     0.001 C
ATOM     11  Br  UNL     1      -3.540   4.220   0.125  1.00  0.00    -0.043 Br
ATOM     12  C   UNL     1      -2.621   2.598  -0.050  1.00  0.00     0.057 C
ATOM     13  Br  UNL     1      -1.796   1.964   1.510  1.00  0.00    -0.043 Br
ENDBRANCH   6  10
ENDBRANCH   3   5
ENDBRANCH   2   3
ENDBRANCH   1   2
BRANCH   1  14
ATOM     14  C   UNL     1       0.485   4.122  -3.176  1.00  0.00     0.011 A
ATOM     15  C   UNL     1      -0.302   4.845  -2.279  1.00  0.00     0.055 A
ATOM     16  C   UNL     1       0.912   4.715  -4.364  1.00  0.00     0.009 A
ATOM     17  C   UNL     1      -0.662   6.160  -2.571  1.00  0.00     0.127 A
ATOM     18  C   UNL     1       0.551   6.030  -4.656  1.00  0.00     0.004 A
ATOM     19  C   UNL     1      -0.237   6.753  -3.760  1.00  0.00     0.047 A
BRANCH  17  20
ATOM     20  O   UNL     1      -1.431   6.866  -1.697  1.00  0.00    -0.457 OA
BRANCH  20  21
ATOM     21  C   UNL     1      -2.668   7.307  -2.139  1.00  0.00     0.127 A
ATOM     22  C   UNL     1      -2.969   8.654  -2.061  1.00  0.00     0.047 A
ATOM     23  C   UNL     1      -3.569   6.389  -2.647  1.00  0.00     0.047 A
ATOM     24  C   UNL     1      -4.215   9.100  -2.506  1.00  0.00     0.004 A
ATOM     25  C   UNL     1      -4.814   6.833  -3.091  1.00  0.00     0.004 A
ATOM     26  C   UNL     1      -5.137   8.189  -3.021  1.00  0.00     0.000 A
ENDBRANCH  20  21
ENDBRANCH  17  20
ENDBRANCH   1  14
BRANCH   1  27
ATOM     27  C   UNL     1       1.855   2.628  -1.766  1.00  0.00     0.113 C
ATOM     28  N   UNL     1       2.619   2.560  -0.896  1.00  0.00    -0.194 NA
ENDBRANCH   1  27
TORSDOF 8
ENDMDL
MODEL 5
REMARK VINA RESULT:    -6.791      2.152      4.348
REMARK INTER + INTRA:         -11.219
REMARK INTER:                 -10.562
REMARK INTRA:                  -0.658
REMARK UNBOUND:                -1.253
REMARK SMILES CC1(C)C(C=C(Br)Br)C1C(=O)OC(C#N)c1cccc(Oc2ccccc2)c1
REMARK SMILES IDX 13 1 12 2 10 3 11 4 9 5 4 6 2 7 1 8 3 9 5 10 7 11 6 12 8 13
REMARK SMILES IDX 16 14 28 15 17 16 20 17 18 18 19 19 21 20 22 21 23 22 27 23
REMARK SMILES IDX 24 24 26 25 25 26 14 27 15 28
REMARK H PARENT
REMARK Flexibility Score: inf
ROOT
ATOM      1  C   UNL     1      -4.042   1.800  -2.287  1.00  0.00     0.309 C
ENDROOT
BRANCH   1   2
ATOM      2  O   UNL     1      -2.728   1.864  -2.859  1.00  0.00    -0.442 OA
BRANCH   2   3
ATOM      3  C   UNL     1      -1.752   1.242  -2.144  1.00  0.00     0.311 C
ATOM      4  O   UNL     1      -1.142   0.229  -2.456  1.00  0.00    -0.252 OA
BRANCH   3   5
ATOM      5  C   UNL     1      -1.478   1.954  -0.869  1.00  0.00     0.113 C
ATOM      6  C   UNL     1      -0.174   2.670  -0.722  1.00  0.00     0.035 C
ATOM      7  C   UNL     1      -0.444   1.427   0.074  1.00  0.00    -0.014 C
ATOM      8  C   UNL     1       0.325   0.201  -0.289  1.00  0.00     0.012 C
ATOM      9  C   UNL     1      -0.742   1.533   1.533  1.00  0.00     0.012 C
BRANCH   6  10
ATOM     10  C   UNL     1       0.759   2.643  -1.838  1.00  0.00     0.001 C
ATOM     11  Br  UNL     1      -0.038   5.173  -2.860  1.00  0.00    -0.043 Br
ATOM     12  C   UNL     1       0.936   3.576  -2.789  1.00  0.00     0.057 C
ATOM     13  Br  UNL     1       2.204   3.343  -4.150  1.00  0.00    -0.043 Br
ENDBRANCH   6  10
ENDBRANCH   3   5
ENDBRANCH   2   3
ENDBRANCH   1   2
BRANCH   1  14
ATOM     14  C   UNL     1      -4.712   3.126  -2.403  1.00  0.00     0.011 A
ATOM     15  C   UNL     1      -6.105   3.207  -2.395  1.00  0.00     0.055 A
ATOM     16  C   UNL     1      -3.947   4.287  -2.519  1.00  0.00     0.009 A
ATOM     17  C   UNL     1      -6.732   4.448  -2.503  1.00  0.00     0.127 A
ATOM     18  C   UNL     1      -4.575   5.527  -2.628  1.00  0.00     0.004 A
ATOM     19  C   UNL     1      -5.967   5.609  -2.621  1.00  0.00     0.047 A
BRANCH  17  20
ATOM     20  O   UNL     1      -8.091   4.528  -2.496  1.00  0.00    -0.457 OA
BRANCH  20  21
ATOM     21  C   UNL     1      -8.730   4.506  -1.267  1.00  0.00     0.127 A
ATOM     22  C   UNL     1      -8.723   5.646  -0.484  1.00  0.00     0.047 A
ATOM     23  C   UNL     1      -9.359   3.345  -0.855  1.00  0.00     0.047 A
ATOM     24  C   UNL     1      -9.366   5.624   0.754  1.00  0.00     0.004 A
ATOM     25  C   UNL     1     -10.001   3.323   0.382  1.00  0.00     0.004 A
ATOM     26  C   UNL     1     -10.006   4.462   1.187  1.00  0.00     0.000 A
ENDBRANCH  20  21
ENDBRANCH  17  20
ENDBRANCH   1  14
BRANCH   1  27
ATOM     27  C   UNL     1      -4.806   0.717  -2.938  1.00  0.00     0.113 C
ATOM     28  N   UNL     1      -5.415  -0.133  -3.441  1.00  0.00    -0.194 NA
ENDBRANCH   1  27
TORSDOF 8
ENDMDL
