MODEL 1
REMARK VINA RESULT:    -5.961      0.000      0.000
REMARK INTER + INTRA:          -7.628
REMARK INTER:                  -7.006
REMARK INTRA:                  -0.621
REMARK UNBOUND:                -0.621
REMARK SMILES Clc1ccc(C(c2ccc(Cl)cc2)C(Cl)(Cl)Cl)cc1
REMARK SMILES IDX 6 1 14 2 15 3 16 4 17 5 5 6 4 7 18 8 3 9 19 10 2 11 1 12
REMARK SMILES IDX 7 13 8 14 13 15 9 16 12 17 10 18 11 19
REMARK H PARENT
REMARK Flexibility Score: inf
ROOT
ATOM      1  C   UNL     1      -1.265   1.952  -1.169  1.00  0.00     0.101 C 
ENDROOT
BRANCH   1   2
ATOM      2  C   UNL     1      -1.709   1.096  -2.429  1.00  0.00     0.201 C 
ATOM      3  Cl  UNL     1      -1.077   1.704  -3.993  1.00  0.00    -0.083 Cl
ATOM      4  Cl  UNL     1      -3.518   1.123  -2.565  1.00  0.00    -0.083 Cl
ATOM      5  Cl  UNL     1      -1.250  -0.642  -2.270  1.00  0.00    -0.083 Cl
ENDBRANCH   1   2
BRANCH   1   6
ATOM      6  C   UNL     1      -1.682   3.384  -1.182  1.00  0.00    -0.036 A 
ATOM      7  C   UNL     1      -1.574   4.130  -2.355  1.00  0.00     0.006 A 
ATOM      8  C   UNL     1      -2.179   3.977  -0.020  1.00  0.00     0.006 A 
ATOM      9  C   UNL     1      -1.963   5.470  -2.367  1.00  0.00     0.021 A 
ATOM     10  C   UNL     1      -2.568   5.316  -0.033  1.00  0.00     0.021 A 
ATOM     11  C   UNL     1      -2.460   6.063  -1.205  1.00  0.00     0.041 A 
ATOM     12  Cl  UNL     1      -2.940   7.716  -1.220  1.00  0.00    -0.084 Cl
ENDBRANCH   1   6
BRANCH   1  13
ATOM     13  C   UNL     1       0.193   1.756  -0.684  1.00  0.00    -0.036 A 
ATOM     14  C   UNL     1       0.395   1.050   0.469  1.00  0.00     0.006 A 
ATOM     15  C   UNL     1       1.196   2.303  -1.435  1.00  0.00     0.006 A 
ATOM     16  C   UNL     1       1.708   0.876   0.906  1.00  0.00     0.021 A 
ATOM     17  C   UNL     1       2.509   2.129  -0.998  1.00  0.00     0.021 A 
ATOM     18  C   UNL     1       2.765   1.415   0.173  1.00  0.00     0.041 A 
ATOM     19  Cl  UNL     1       4.385   1.201   0.713  1.00  0.00    -0.084 Cl
ENDBRANCH   1  13
TORSDOF 3
ENDMDL
MODEL 2
REMARK VINA RESULT:    -5.923      0.229      1.605
REMARK INTER + INTRA:          -7.583
REMARK INTER:                  -6.970
REMARK INTRA:                  -0.613
REMARK UNBOUND:                -0.621
REMARK SMILES Clc1ccc(C(c2ccc(Cl)cc2)C(Cl)(Cl)Cl)cc1
REMARK SMILES IDX 6 1 14 2 15 3 16 4 17 5 5 6 4 7 18 8 3 9 19 10 2 11 1 12
REMARK SMILES IDX 7 13 8 14 13 15 9 16 12 17 10 18 11 19
REMARK H PARENT
REMARK Flexibility Score: inf
ROOT
ATOM      1  C   UNL     1      -1.376   1.952  -1.297  1.00  0.00     0.101 C 
ENDROOT
BRANCH   1   2
ATOM      2  C   UNL     1      -1.792   1.069  -2.547  1.00  0.00     0.201 C 
ATOM      3  Cl  UNL     1      -3.559   0.993  -2.843  1.00  0.00    -0.083 Cl
ATOM      4  Cl  UNL     1      -1.247  -0.641  -2.280  1.00  0.00    -0.083 Cl
ATOM      5  Cl  UNL     1      -0.986   1.614  -4.067  1.00  0.00    -0.083 Cl
ENDBRANCH   1   2
BRANCH   1   6
ATOM      6  C   UNL     1      -1.825   3.374  -1.334  1.00  0.00    -0.036 A 
ATOM      7  C   UNL     1      -1.900   4.050  -2.552  1.00  0.00     0.006 A 
ATOM      8  C   UNL     1      -2.169   4.029  -0.151  1.00  0.00     0.006 A 
ATOM      9  C   UNL     1      -2.319   5.380  -2.587  1.00  0.00     0.021 A 
ATOM     10  C   UNL     1      -2.588   5.359  -0.186  1.00  0.00     0.021 A 
ATOM     11  C   UNL     1      -2.663   6.034  -1.403  1.00  0.00     0.041 A 
ATOM     12  Cl  UNL     1      -3.179   7.676  -1.446  1.00  0.00    -0.084 Cl
ENDBRANCH   1   6
BRANCH   1  13
ATOM     13  C   UNL     1       0.083   1.797  -0.800  1.00  0.00    -0.036 A 
ATOM     14  C   UNL     1       1.076   2.378  -1.538  1.00  0.00     0.006 A 
ATOM     15  C   UNL     1       0.294   1.087   0.349  1.00  0.00     0.006 A 
ATOM     16  C   UNL     1       2.389   2.236  -1.090  1.00  0.00     0.021 A 
ATOM     17  C   UNL     1       1.608   0.945   0.796  1.00  0.00     0.021 A 
ATOM     18  C   UNL     1       2.655   1.520   0.077  1.00  0.00     0.041 A 
ATOM     19  Cl  UNL     1       4.276   1.345   0.629  1.00  0.00    -0.084 Cl
ENDBRANCH   1  13
TORSDOF 3
ENDMDL
MODEL 3
REMARK VINA RESULT:    -5.911      2.221      4.761
REMARK INTER + INTRA:          -7.569
REMARK INTER:                  -7.054
REMARK INTRA:                  -0.515
REMARK UNBOUND:                -0.621
REMARK SMILES Clc1ccc(C(c2ccc(Cl)cc2)C(Cl)(Cl)Cl)cc1
REMARK SMILES IDX 6 1 14 2 15 3 16 4 17 5 5 6 4 7 18 8 3 9 19 10 2 11 1 12
REMARK SMILES IDX 7 13 8 14 13 15 9 16 12 17 10 18 11 19
REMARK H PARENT
REMARK Flexibility Score: inf
ROOT
ATOM      1  C   UNL     1       0.005   1.479  -1.596  1.00  0.00     0.101 C 
ENDROOT
BRANCH   1   2
ATOM      2  C   UNL     1       0.379   0.902  -0.167  1.00  0.00     0.201 C 
ATOM      3  Cl  UNL     1      -0.608   1.561   1.177  1.00  0.00    -0.083 Cl
ATOM      4  Cl  UNL     1       2.103   1.319   0.216  1.00  0.00    -0.083 Cl
ATOM      5  Cl  UNL     1       0.282  -0.899  -0.111  1.00  0.00    -0.083 Cl
ENDBRANCH   1   2
BRANCH   1   6
ATOM      6  C   UNL     1       0.080   2.962  -1.733  1.00  0.00    -0.036 A 
ATOM      7  C   UNL     1      -0.731   3.777  -0.943  1.00  0.00     0.006 A 
ATOM      8  C   UNL     1       0.960   3.535  -2.652  1.00  0.00     0.006 A 
ATOM      9  C   UNL     1      -0.662   5.165  -1.072  1.00  0.00     0.021 A 
ATOM     10  C   UNL     1       1.030   4.922  -2.780  1.00  0.00     0.021 A 
ATOM     11  C   UNL     1       0.219   5.737  -1.991  1.00  0.00     0.041 A 
ATOM     12  Cl  UNL     1       0.304   7.449  -2.150  1.00  0.00    -0.084 Cl
ENDBRANCH   1   6
BRANCH   1  13
ATOM     13  C   UNL     1      -1.253   0.877  -2.273  1.00  0.00    -0.036 A 
ATOM     14  C   UNL     1      -2.478   1.291  -1.830  1.00  0.00     0.006 A 
ATOM     15  C   UNL     1      -1.065  -0.035  -3.274  1.00  0.00     0.006 A 
ATOM     16  C   UNL     1      -3.609   0.748  -2.439  1.00  0.00     0.021 A 
ATOM     17  C   UNL     1      -2.197  -0.578  -3.882  1.00  0.00     0.021 A 
ATOM     18  C   UNL     1      -3.469  -0.186  -3.465  1.00  0.00     0.041 A 
ATOM     19  Cl  UNL     1      -4.865  -0.858  -4.215  1.00  0.00    -0.084 Cl
ENDBRANCH   1  13
TORSDOF 3
ENDMDL
MODEL 4
REMARK VINA RESULT:    -5.824      2.853      4.084
REMARK INTER + INTRA:          -7.466
REMARK INTER:                  -6.910
REMARK INTRA:                  -0.556
REMARK UNBOUND:                -0.621
REMARK SMILES Clc1ccc(C(c2ccc(Cl)cc2)C(Cl)(Cl)Cl)cc1
REMARK SMILES IDX 6 1 14 2 15 3 16 4 17 5 5 6 4 7 18 8 3 9 19 10 2 11 1 12
REMARK SMILES IDX 7 13 8 14 13 15 9 16 12 17 10 18 11 19
REMARK H PARENT
REMARK Flexibility Score: inf
ROOT
ATOM      1  C   UNL     1      -2.354   4.791  -1.631  1.00  0.00     0.101 C 
ENDROOT
BRANCH   1   2
ATOM      2  C   UNL     1      -3.394   3.594  -1.652  1.00  0.00     0.201 C 
ATOM      3  Cl  UNL     1      -5.086   4.080  -1.307  1.00  0.00    -0.083 Cl
ATOM      4  Cl  UNL     1      -2.943   2.385  -0.376  1.00  0.00    -0.083 Cl
ATOM      5  Cl  UNL     1      -3.371   2.696  -3.216  1.00  0.00    -0.083 Cl
ENDBRANCH   1   2
BRANCH   1   6
ATOM      6  C   UNL     1      -2.915   6.139  -1.938  1.00  0.00    -0.036 A 
ATOM      7  C   UNL     1      -2.459   7.258  -1.242  1.00  0.00     0.006 A 
ATOM      8  C   UNL     1      -3.895   6.279  -2.921  1.00  0.00     0.006 A 
ATOM      9  C   UNL     1      -2.984   8.519  -1.529  1.00  0.00     0.021 A 
ATOM     10  C   UNL     1      -4.420   7.539  -3.208  1.00  0.00     0.021 A 
ATOM     11  C   UNL     1      -3.964   8.659  -2.512  1.00  0.00     0.041 A 
ATOM     12  Cl  UNL     1      -4.612  10.214  -2.865  1.00  0.00    -0.084 Cl
ENDBRANCH   1   6
BRANCH   1  13
ATOM     13  C   UNL     1      -0.995   4.534  -2.329  1.00  0.00    -0.036 A 
ATOM     14  C   UNL     1      -0.835   4.992  -3.606  1.00  0.00     0.006 A 
ATOM     15  C   UNL     1      -0.034   3.861  -1.628  1.00  0.00     0.006 A 
ATOM     16  C   UNL     1       0.388   4.759  -4.234  1.00  0.00     0.021 A 
ATOM     17  C   UNL     1       1.189   3.626  -2.257  1.00  0.00     0.021 A 
ATOM     18  C   UNL     1       1.400   4.076  -3.560  1.00  0.00     0.041 A 
ATOM     19  Cl  UNL     1       2.910   3.787  -4.336  1.00  0.00    -0.084 Cl
ENDBRANCH   1  13
TORSDOF 3
ENDMDL
MODEL 5
REMARK VINA RESULT:    -5.801      2.794      3.797
REMARK INTER + INTRA:          -7.440
REMARK INTER:                  -6.851
REMARK INTRA:                  -0.589
REMARK UNBOUND:                -0.621
REMARK SMILES Clc1ccc(C(c2ccc(Cl)cc2)C(Cl)(Cl)Cl)cc1
REMARK SMILES IDX 6 1 14 2 15 3 16 4 17 5 5 6 4 7 18 8 3 9 19 10 2 11 1 12
REMARK SMILES IDX 7 13 8 14 13 15 9 16 12 17 10 18 11 19
REMARK H PARENT
REMARK Flexibility Score: inf
ROOT
ATOM      1  C   UNL     1      -2.013   4.739  -1.567  1.00  0.00     0.101 C 
ENDROOT
BRANCH   1   2
ATOM      2  C   UNL     1      -3.008   3.508  -1.481  1.00  0.00     0.201 C 
ATOM      3  Cl  UNL     1      -4.710   3.958  -1.139  1.00  0.00    -0.083 Cl
ATOM      4  Cl  UNL     1      -2.491   2.410  -0.132  1.00  0.00    -0.083 Cl
ATOM      5  Cl  UNL     1      -2.979   2.500  -2.978  1.00  0.00    -0.083 Cl
ENDBRANCH   1   2
BRANCH   1   6
ATOM      6  C   UNL     1      -2.639   6.056  -1.878  1.00  0.00    -0.036 A 
ATOM      7  C   UNL     1      -3.572   6.157  -2.910  1.00  0.00     0.006 A 
ATOM      8  C   UNL     1      -2.292   7.187  -1.139  1.00  0.00     0.006 A 
ATOM      9  C   UNL     1      -4.158   7.389  -3.203  1.00  0.00     0.021 A 
ATOM     10  C   UNL     1      -2.878   8.419  -1.431  1.00  0.00     0.021 A 
ATOM     11  C   UNL     1      -3.810   8.520  -2.462  1.00  0.00     0.041 A 
ATOM     12  Cl  UNL     1      -4.533  10.040  -2.823  1.00  0.00    -0.084 Cl
ENDBRANCH   1   6
BRANCH   1  13
ATOM     13  C   UNL     1      -0.693   4.504  -2.345  1.00  0.00    -0.036 A 
ATOM     14  C   UNL     1       0.293   3.786  -1.730  1.00  0.00     0.006 A 
ATOM     15  C   UNL     1      -0.591   5.030  -3.602  1.00  0.00     0.006 A 
ATOM     16  C   UNL     1       1.481   3.576  -2.430  1.00  0.00     0.021 A 
ATOM     17  C   UNL     1       0.598   4.821  -4.302  1.00  0.00     0.021 A 
ATOM     18  C   UNL     1       1.633   4.093  -3.716  1.00  0.00     0.041 A 
ATOM     19  Cl  UNL     1       3.099   3.835  -4.581  1.00  0.00    -0.084 Cl
ENDBRANCH   1  13
TORSDOF 3
ENDMDL
