MODEL 1
REMARK VINA RESULT:    -6.583      0.000      0.000
REMARK INTER + INTRA:         -12.446
REMARK INTER:                  -9.277
REMARK INTRA:                  -3.168
REMARK UNBOUND:                -3.168
REMARK SMILES CC1(C)[C@H](C=C(Cl)Cl)[C@H]1C(=O)OCc1cccc(Oc2ccccc2)c1
REMARK SMILES IDX 13 1 12 2 10 3 11 4 9 5 4 6 2 7 1 8 3 9 5 10 7 11 6 12 8 13
REMARK SMILES IDX 14 14 26 15 15 16 18 17 16 18 17 19 19 20 20 21 21 22 25 23
REMARK SMILES IDX 22 24 24 25 23 26
REMARK H PARENT
REMARK Flexibility Score: inf
ROOT
ATOM      1  C   UNL     1      -0.393   6.801  -3.289  1.00  0.00     0.268 C 
ENDROOT
BRANCH   1   2
ATOM      2  O   UNL     1      -0.207   5.425  -2.982  1.00  0.00    -0.461 OA
BRANCH   2   3
ATOM      3  C   UNL     1       0.069   5.140  -1.676  1.00  0.00     0.310 C 
ATOM      4  O   UNL     1       0.694   5.843  -0.893  1.00  0.00    -0.252 OA
BRANCH   3   5
ATOM      5  C   UNL     1      -0.489   3.827  -1.266  1.00  0.00     0.113 C 
ATOM      6  C   UNL     1      -1.659   3.286  -2.026  1.00  0.00     0.035 C 
ATOM      7  C   UNL     1      -1.832   3.756  -0.611  1.00  0.00    -0.014 C 
ATOM      8  C   UNL     1      -2.087   2.719   0.430  1.00  0.00     0.012 C 
ATOM      9  C   UNL     1      -2.525   5.048  -0.339  1.00  0.00     0.012 C 
BRANCH   6  10
ATOM     10  C   UNL     1      -1.680   1.864  -2.338  1.00  0.00     0.011 C 
ATOM     11  Cl  UNL     1       0.180   2.033  -4.281  1.00  0.00    -0.071 Cl
ATOM     12  C   UNL     1      -0.954   1.218  -3.264  1.00  0.00     0.103 C 
ATOM     13  Cl  UNL     1      -1.131  -0.488  -3.480  1.00  0.00    -0.071 Cl
ENDBRANCH   6  10
ENDBRANCH   3   5
ENDBRANCH   2   3
ENDBRANCH   1   2
BRANCH   1  14
ATOM     14  C   UNL     1      -1.831   7.158  -3.118  1.00  0.00    -0.007 A 
ATOM     15  C   UNL     1      -2.821   6.351  -3.678  1.00  0.00     0.054 A 
ATOM     16  C   UNL     1      -2.185   8.298  -2.396  1.00  0.00     0.007 A 
ATOM     17  C   UNL     1      -4.166   6.685  -3.517  1.00  0.00     0.127 A 
ATOM     18  C   UNL     1      -3.530   8.632  -2.236  1.00  0.00     0.004 A 
ATOM     19  C   UNL     1      -4.520   7.825  -2.797  1.00  0.00     0.047 A 
BRANCH  17  20
ATOM     20  O   UNL     1      -5.132   5.898  -4.064  1.00  0.00    -0.457 OA
BRANCH  20  21
ATOM     21  C   UNL     1      -5.170   4.567  -3.686  1.00  0.00     0.127 A 
ATOM     22  C   UNL     1      -4.883   3.592  -4.626  1.00  0.00     0.047 A 
ATOM     23  C   UNL     1      -5.492   4.245  -2.381  1.00  0.00     0.047 A 
ATOM     24  C   UNL     1      -4.920   2.251  -4.246  1.00  0.00     0.004 A 
ATOM     25  C   UNL     1      -5.529   2.902  -2.001  1.00  0.00     0.004 A 
ATOM     26  C   UNL     1      -5.242   1.906  -2.934  1.00  0.00     0.000 A 
ENDBRANCH  20  21
ENDBRANCH  17  20
ENDBRANCH   1  14
TORSDOF 7
ENDMDL
MODEL 2
REMARK VINA RESULT:    -6.469      3.405      5.421
REMARK INTER + INTRA:         -12.285
REMARK INTER:                 -10.153
REMARK INTRA:                  -2.132
REMARK UNBOUND:                -3.168
REMARK SMILES CC1(C)[C@H](C=C(Cl)Cl)[C@H]1C(=O)OCc1cccc(Oc2ccccc2)c1
REMARK SMILES IDX 13 1 12 2 10 3 11 4 9 5 4 6 2 7 1 8 3 9 5 10 7 11 6 12 8 13
REMARK SMILES IDX 14 14 26 15 15 16 18 17 16 18 17 19 19 20 20 21 21 22 25 23
REMARK SMILES IDX 22 24 24 25 23 26
REMARK H PARENT
REMARK Flexibility Score: inf
ROOT
ATOM      1  C   UNL     1      -2.820   3.796   0.188  1.00  0.00     0.268 C 
ENDROOT
BRANCH   1   2
ATOM      2  O   UNL     1      -2.369   5.119  -0.073  1.00  0.00    -0.461 OA
BRANCH   2   3
ATOM      3  C   UNL     1      -1.248   5.222  -0.845  1.00  0.00     0.310 C 
ATOM      4  O   UNL     1      -0.260   4.503  -0.796  1.00  0.00    -0.252 OA
BRANCH   3   5
ATOM      5  C   UNL     1      -1.342   6.350  -1.806  1.00  0.00     0.113 C 
ATOM      6  C   UNL     1      -2.671   6.645  -2.427  1.00  0.00     0.035 C 
ATOM      7  C   UNL     1      -1.560   6.079  -3.261  1.00  0.00    -0.014 C 
ATOM      8  C   UNL     1      -0.938   6.977  -4.277  1.00  0.00     0.012 C 
ATOM      9  C   UNL     1      -1.606   4.650  -3.686  1.00  0.00     0.012 C 
BRANCH   6  10
ATOM     10  C   UNL     1      -3.068   8.038  -2.575  1.00  0.00     0.011 C 
ATOM     11  Cl  UNL     1      -5.695   7.497  -2.829  1.00  0.00    -0.071 Cl
ATOM     12  C   UNL     1      -4.307   8.522  -2.751  1.00  0.00     0.103 C 
ATOM     13  Cl  UNL     1      -4.567  10.224  -2.910  1.00  0.00    -0.071 Cl
ENDBRANCH   6  10
ENDBRANCH   3   5
ENDBRANCH   2   3
ENDBRANCH   1   2
BRANCH   1  14
ATOM     14  C   UNL     1      -3.753   3.366  -0.893  1.00  0.00    -0.007 A 
ATOM     15  C   UNL     1      -4.876   4.138  -1.192  1.00  0.00     0.054 A 
ATOM     16  C   UNL     1      -3.501   2.194  -1.607  1.00  0.00     0.007 A 
ATOM     17  C   UNL     1      -5.747   3.736  -2.204  1.00  0.00     0.127 A 
ATOM     18  C   UNL     1      -4.373   1.793  -2.618  1.00  0.00     0.004 A 
ATOM     19  C   UNL     1      -5.496   2.564  -2.917  1.00  0.00     0.047 A 
BRANCH  17  20
ATOM     20  O   UNL     1      -6.844   4.489  -2.496  1.00  0.00    -0.457 OA
BRANCH  20  21
ATOM     21  C   UNL     1      -7.865   4.529  -1.563  1.00  0.00     0.127 A 
ATOM     22  C   UNL     1      -8.183   5.737  -0.964  1.00  0.00     0.047 A 
ATOM     23  C   UNL     1      -8.540   3.365  -1.251  1.00  0.00     0.047 A 
ATOM     24  C   UNL     1      -9.211   5.778  -0.024  1.00  0.00     0.004 A 
ATOM     25  C   UNL     1      -9.570   3.407  -0.310  1.00  0.00     0.004 A 
ATOM     26  C   UNL     1      -9.905   4.613   0.303  1.00  0.00     0.000 A 
ENDBRANCH  20  21
ENDBRANCH  17  20
ENDBRANCH   1  14
TORSDOF 7
ENDMDL
MODEL 3
REMARK VINA RESULT:    -6.256      2.264      4.572
REMARK INTER + INTRA:         -11.985
REMARK INTER:                  -9.831
REMARK INTRA:                  -2.154
REMARK UNBOUND:                -3.168
REMARK SMILES CC1(C)[C@H](C=C(Cl)Cl)[C@H]1C(=O)OCc1cccc(Oc2ccccc2)c1
REMARK SMILES IDX 13 1 12 2 10 3 11 4 9 5 4 6 2 7 1 8 3 9 5 10 7 11 6 12 8 13
REMARK SMILES IDX 14 14 26 15 15 16 18 17 16 18 17 19 19 20 20 21 21 22 25 23
REMARK SMILES IDX 22 24 24 25 23 26
REMARK H PARENT
REMARK Flexibility Score: inf
ROOT
ATOM      1  C   UNL     1      -4.475   2.031  -4.177  1.00  0.00     0.268 C 
ENDROOT
BRANCH   1   2
ATOM      2  O   UNL     1      -3.094   2.065  -3.837  1.00  0.00    -0.461 OA
BRANCH   2   3
ATOM      3  C   UNL     1      -2.774   1.570  -2.606  1.00  0.00     0.310 C 
ATOM      4  O   UNL     1      -3.301   0.622  -2.041  1.00  0.00    -0.252 OA
BRANCH   3   5
ATOM      5  C   UNL     1      -1.663   2.330  -1.977  1.00  0.00     0.113 C 
ATOM      6  C   UNL     1      -1.349   2.066  -0.539  1.00  0.00     0.035 C 
ATOM      7  C   UNL     1      -1.958   3.374  -0.948  1.00  0.00    -0.014 C 
ATOM      8  C   UNL     1      -1.096   4.589  -0.866  1.00  0.00     0.012 C 
ATOM      9  C   UNL     1      -3.394   3.649  -0.650  1.00  0.00     0.012 C 
BRANCH   6  10
ATOM     10  C   UNL     1       0.050   1.996  -0.141  1.00  0.00     0.011 C 
ATOM     11  Cl  UNL     1       0.170  -0.695  -0.206  1.00  0.00    -0.071 Cl
ATOM     12  C   UNL     1       0.798   0.896   0.033  1.00  0.00     0.103 C 
ATOM     13  Cl  UNL     1       2.453   1.031   0.516  1.00  0.00    -0.071 Cl
ENDBRANCH   6  10
ENDBRANCH   3   5
ENDBRANCH   2   3
ENDBRANCH   1   2
BRANCH   1  14
ATOM     14  C   UNL     1      -5.160   3.217  -3.587  1.00  0.00    -0.007 A 
ATOM     15  C   UNL     1      -4.729   4.504  -3.911  1.00  0.00     0.054 A 
ATOM     16  C   UNL     1      -6.232   3.040  -2.712  1.00  0.00     0.007 A 
ATOM     17  C   UNL     1      -5.371   5.613  -3.359  1.00  0.00     0.127 A 
ATOM     18  C   UNL     1      -6.873   4.148  -2.160  1.00  0.00     0.004 A 
ATOM     19  C   UNL     1      -6.442   5.435  -2.484  1.00  0.00     0.047 A 
BRANCH  17  20
ATOM     20  O   UNL     1      -4.951   6.869  -3.675  1.00  0.00    -0.457 OA
BRANCH  20  21
ATOM     21  C   UNL     1      -3.687   7.249  -3.259  1.00  0.00     0.127 A 
ATOM     22  C   UNL     1      -3.498   7.637  -1.944  1.00  0.00     0.047 A 
ATOM     23  C   UNL     1      -2.645   7.231  -4.167  1.00  0.00     0.047 A 
ATOM     24  C   UNL     1      -2.225   8.020  -1.526  1.00  0.00     0.004 A 
ATOM     25  C   UNL     1      -1.370   7.614  -3.747  1.00  0.00     0.004 A 
ATOM     26  C   UNL     1      -1.160   8.008  -2.426  1.00  0.00     0.000 A 
ENDBRANCH  20  21
ENDBRANCH  17  20
ENDBRANCH   1  14
TORSDOF 7
ENDMDL
MODEL 4
REMARK VINA RESULT:    -6.252      2.841      6.036
REMARK INTER + INTRA:         -11.979
REMARK INTER:                  -9.123
REMARK INTRA:                  -2.856
REMARK UNBOUND:                -3.168
REMARK SMILES CC1(C)[C@H](C=C(Cl)Cl)[C@H]1C(=O)OCc1cccc(Oc2ccccc2)c1
REMARK SMILES IDX 13 1 12 2 10 3 11 4 9 5 4 6 2 7 1 8 3 9 5 10 7 11 6 12 8 13
REMARK SMILES IDX 14 14 26 15 15 16 18 17 16 18 17 19 19 20 20 21 21 22 25 23
REMARK SMILES IDX 22 24 24 25 23 26
REMARK H PARENT
REMARK Flexibility Score: inf
ROOT
ATOM      1  C   UNL     1      -5.171   2.902  -4.523  1.00  0.00     0.268 C 
ENDROOT
BRANCH   1   2
ATOM      2  O   UNL     1      -4.453   3.925  -3.843  1.00  0.00    -0.461 OA
BRANCH   2   3
ATOM      3  C   UNL     1      -4.882   4.211  -2.580  1.00  0.00     0.310 C 
ATOM      4  O   UNL     1      -5.989   3.980  -2.116  1.00  0.00    -0.252 OA
BRANCH   3   5
ATOM      5  C   UNL     1      -3.822   4.867  -1.772  1.00  0.00     0.113 C 
ATOM      6  C   UNL     1      -2.394   4.619  -2.141  1.00  0.00     0.035 C 
ATOM      7  C   UNL     1      -2.953   4.047  -0.872  1.00  0.00    -0.014 C 
ATOM      8  C   UNL     1      -2.471   4.631   0.414  1.00  0.00     0.012 C 
ATOM      9  C   UNL     1      -3.249   2.588  -0.783  1.00  0.00     0.012 C 
BRANCH   6  10
ATOM     10  C   UNL     1      -1.467   5.741  -2.100  1.00  0.00     0.011 C 
ATOM     11  Cl  UNL     1      -2.426   6.910  -4.330  1.00  0.00    -0.071 Cl
ATOM     12  C   UNL     1      -1.382   6.766  -2.962  1.00  0.00     0.103 C 
ATOM     13  Cl  UNL     1      -0.199   8.006  -2.733  1.00  0.00    -0.071 Cl
ENDBRANCH   6  10
ENDBRANCH   3   5
ENDBRANCH   2   3
ENDBRANCH   1   2
BRANCH   1  14
ATOM     14  C   UNL     1      -4.440   1.609  -4.387  1.00  0.00    -0.007 A 
ATOM     15  C   UNL     1      -3.054   1.605  -4.230  1.00  0.00     0.054 A 
ATOM     16  C   UNL     1      -5.142   0.405  -4.417  1.00  0.00     0.007 A 
ATOM     17  C   UNL     1      -2.371   0.396  -4.103  1.00  0.00     0.127 A 
ATOM     18  C   UNL     1      -4.459  -0.804  -4.291  1.00  0.00     0.004 A 
ATOM     19  C   UNL     1      -3.073  -0.808  -4.133  1.00  0.00     0.047 A 
BRANCH  17  20
ATOM     20  O   UNL     1      -1.018   0.391  -3.949  1.00  0.00    -0.457 OA
BRANCH  20  21
ATOM     21  C   UNL     1      -0.507   0.791  -2.726  1.00  0.00     0.127 A 
ATOM     22  C   UNL     1      -0.582  -0.075  -1.649  1.00  0.00     0.047 A 
ATOM     23  C   UNL     1       0.064   2.045  -2.611  1.00  0.00     0.047 A 
ATOM     24  C   UNL     1      -0.068   0.328  -0.417  1.00  0.00     0.004 A 
ATOM     25  C   UNL     1       0.579   2.447  -1.378  1.00  0.00     0.004 A 
ATOM     26  C   UNL     1       0.514   1.588  -0.282  1.00  0.00     0.000 A 
ENDBRANCH  20  21
ENDBRANCH  17  20
ENDBRANCH   1  14
TORSDOF 7
ENDMDL
MODEL 5
REMARK VINA RESULT:    -6.210      4.082      7.757
REMARK INTER + INTRA:         -11.920
REMARK INTER:                 -11.192
REMARK INTRA:                  -0.728
REMARK UNBOUND:                -3.168
REMARK SMILES CC1(C)[C@H](C=C(Cl)Cl)[C@H]1C(=O)OCc1cccc(Oc2ccccc2)c1
REMARK SMILES IDX 13 1 12 2 10 3 11 4 9 5 4 6 2 7 1 8 3 9 5 10 7 11 6 12 8 13
REMARK SMILES IDX 14 14 26 15 15 16 18 17 16 18 17 19 19 20 20 21 21 22 25 23
REMARK SMILES IDX 22 24 24 25 23 26
REMARK H PARENT
REMARK Flexibility Score: inf
ROOT
ATOM      1  C   UNL     1      -3.565   1.139  -4.250  1.00  0.00     0.268 C 
ENDROOT
BRANCH   1   2
ATOM      2  O   UNL     1      -4.064   2.356  -3.711  1.00  0.00    -0.461 OA
BRANCH   2   3
ATOM      3  C   UNL     1      -5.206   2.253  -2.971  1.00  0.00     0.310 C 
ATOM      4  O   UNL     1      -5.888   1.249  -2.818  1.00  0.00    -0.252 OA
BRANCH   3   5
ATOM      5  C   UNL     1      -5.567   3.543  -2.330  1.00  0.00     0.113 C 
ATOM      6  C   UNL     1      -7.009   3.942  -2.302  1.00  0.00     0.035 C 
ATOM      7  C   UNL     1      -6.037   4.690  -3.167  1.00  0.00    -0.014 C 
ATOM      8  C   UNL     1      -5.691   6.084  -2.763  1.00  0.00     0.012 C 
ATOM      9  C   UNL     1      -6.054   4.491  -4.645  1.00  0.00     0.012 C 
BRANCH   6  10
ATOM     10  C   UNL     1      -7.533   4.548  -1.087  1.00  0.00     0.011 C 
ATOM     11  Cl  UNL     1     -10.111   4.407  -1.858  1.00  0.00    -0.071 Cl
ATOM     12  C   UNL     1      -8.816   4.797  -0.783  1.00  0.00     0.103 C 
ATOM     13  Cl  UNL     1      -9.232   5.533   0.725  1.00  0.00    -0.071 Cl
ENDBRANCH   6  10
ENDBRANCH   3   5
ENDBRANCH   2   3
ENDBRANCH   1   2
BRANCH   1  14
ATOM     14  C   UNL     1      -2.521   0.584  -3.342  1.00  0.00    -0.007 A 
ATOM     15  C   UNL     1      -2.008   1.369  -2.308  1.00  0.00     0.054 A 
ATOM     16  C   UNL     1      -2.058  -0.719  -3.524  1.00  0.00     0.007 A 
ATOM     17  C   UNL     1      -1.031   0.849  -1.458  1.00  0.00     0.127 A 
ATOM     18  C   UNL     1      -1.081  -1.238  -2.674  1.00  0.00     0.004 A 
ATOM     19  C   UNL     1      -0.569  -0.453  -1.641  1.00  0.00     0.047 A 
BRANCH  17  20
ATOM     20  O   UNL     1      -0.530   1.615  -0.450  1.00  0.00    -0.457 OA
BRANCH  20  21
ATOM     21  C   UNL     1       0.842   1.620  -0.266  1.00  0.00     0.127 A 
ATOM     22  C   UNL     1       1.368   1.079   0.894  1.00  0.00     0.047 A 
ATOM     23  C   UNL     1       1.651   2.166  -1.245  1.00  0.00     0.047 A 
ATOM     24  C   UNL     1       2.750   1.085   1.079  1.00  0.00     0.004 A 
ATOM     25  C   UNL     1       3.034   2.171  -1.059  1.00  0.00     0.004 A 
ATOM     26  C   UNL     1       3.583   1.630   0.103  1.00  0.00     0.000 A 
ENDBRANCH  20  21
ENDBRANCH  17  20
ENDBRANCH   1  14
TORSDOF 7
ENDMDL
