MODEL 1
REMARK VINA RESULT:    -6.516      0.000      0.000
REMARK INTER + INTRA:          -8.276
REMARK INTER:                  -7.658
REMARK INTRA:                  -0.617
REMARK UNBOUND:                -0.617
REMARK SMILES Clc1ccc(C(c2ccc(Cl)cc2)C(Cl)(Cl)Cl)cc1
REMARK SMILES IDX 6 1 14 2 15 3 16 4 17 5 5 6 4 7 18 8 3 9 19 10 2 11 1 12
REMARK SMILES IDX 7 13 8 14 13 15 9 16 12 17 10 18 11 19
REMARK H PARENT
REMARK Flexibility Score: inf
ROOT
ATOM      1  C   UNL     1      -1.359   1.643  -1.478  1.00  0.00     0.101 C 
ENDROOT
BRANCH   1   2
ATOM      2  C   UNL     1      -1.701   0.659  -2.673  1.00  0.00     0.201 C 
ATOM      3  Cl  UNL     1      -1.025   1.158  -4.257  1.00  0.00    -0.083 Cl
ATOM      4  Cl  UNL     1      -3.501   0.582  -2.889  1.00  0.00    -0.083 Cl
ATOM      5  Cl  UNL     1      -1.170  -1.033  -2.339  1.00  0.00    -0.083 Cl
ENDBRANCH   1   2
BRANCH   1   6
ATOM      6  C   UNL     1      -1.895   3.029  -1.608  1.00  0.00    -0.036 A 
ATOM      7  C   UNL     1      -2.006   3.617  -2.868  1.00  0.00     0.006 A 
ATOM      8  C   UNL     1      -2.283   3.737  -0.471  1.00  0.00     0.006 A 
ATOM      9  C   UNL     1      -2.506   4.914  -2.991  1.00  0.00     0.021 A 
ATOM     10  C   UNL     1      -2.784   5.033  -0.593  1.00  0.00     0.021 A 
ATOM     11  C   UNL     1      -2.896   5.621  -1.853  1.00  0.00     0.041 A 
ATOM     12  Cl  UNL     1      -3.513   7.221  -2.003  1.00  0.00    -0.084 Cl
ENDBRANCH   1   6
BRANCH   1  13
ATOM     13  C   UNL     1       0.101   1.612  -0.958  1.00  0.00    -0.036 A 
ATOM     14  C   UNL     1       1.050   2.283  -1.675  1.00  0.00     0.006 A 
ATOM     15  C   UNL     1       0.356   0.913   0.189  1.00  0.00     0.006 A 
ATOM     16  C   UNL     1       2.364   2.253  -1.207  1.00  0.00     0.021 A 
ATOM     17  C   UNL     1       1.670   0.882   0.656  1.00  0.00     0.021 A 
ATOM     18  C   UNL     1       2.674   1.553  -0.042  1.00  0.00     0.041 A 
ATOM     19  Cl  UNL     1       4.295   1.515   0.535  1.00  0.00    -0.084 Cl
ENDBRANCH   1  13
TORSDOF 3
ENDMDL
MODEL 2
REMARK VINA RESULT:    -6.513      0.052      1.568
REMARK INTER + INTRA:          -8.273
REMARK INTER:                  -7.699
REMARK INTRA:                  -0.574
REMARK UNBOUND:                -0.617
REMARK SMILES Clc1ccc(C(c2ccc(Cl)cc2)C(Cl)(Cl)Cl)cc1
REMARK SMILES IDX 6 1 14 2 15 3 16 4 17 5 5 6 4 7 18 8 3 9 19 10 2 11 1 12
REMARK SMILES IDX 7 13 8 14 13 15 9 16 12 17 10 18 11 19
REMARK H PARENT
REMARK Flexibility Score: inf
ROOT
ATOM      1  C   UNL     1      -1.372   1.651  -1.475  1.00  0.00     0.101 C 
ENDROOT
BRANCH   1   2
ATOM      2  C   UNL     1      -1.710   0.671  -2.676  1.00  0.00     0.201 C 
ATOM      3  Cl  UNL     1      -1.080   1.208  -4.267  1.00  0.00    -0.083 Cl
ATOM      4  Cl  UNL     1      -3.511   0.545  -2.858  1.00  0.00    -0.083 Cl
ATOM      5  Cl  UNL     1      -1.124  -1.009  -2.373  1.00  0.00    -0.083 Cl
ENDBRANCH   1   2
BRANCH   1   6
ATOM      6  C   UNL     1      -1.899   3.039  -1.607  1.00  0.00    -0.036 A 
ATOM      7  C   UNL     1      -2.245   3.765  -0.467  1.00  0.00     0.006 A 
ATOM      8  C   UNL     1      -2.048   3.613  -2.871  1.00  0.00     0.006 A 
ATOM      9  C   UNL     1      -2.739   5.063  -0.590  1.00  0.00     0.021 A 
ATOM     10  C   UNL     1      -2.541   4.911  -2.994  1.00  0.00     0.021 A 
ATOM     11  C   UNL     1      -2.887   5.636  -1.854  1.00  0.00     0.041 A 
ATOM     12  Cl  UNL     1      -3.498   7.239  -2.006  1.00  0.00    -0.084 Cl
ENDBRANCH   1   6
BRANCH   1  13
ATOM     13  C   UNL     1       0.083   1.610  -0.943  1.00  0.00    -0.036 A 
ATOM     14  C   UNL     1       0.337   0.854   0.167  1.00  0.00     0.006 A 
ATOM     15  C   UNL     1       1.029   2.333  -1.614  1.00  0.00     0.006 A 
ATOM     16  C   UNL     1       1.646   0.819   0.646  1.00  0.00     0.021 A 
ATOM     17  C   UNL     1       2.339   2.298  -1.134  1.00  0.00     0.021 A 
ATOM     18  C   UNL     1       2.647   1.540  -0.004  1.00  0.00     0.041 A 
ATOM     19  Cl  UNL     1       4.263   1.498   0.588  1.00  0.00    -0.084 Cl
ENDBRANCH   1  13
TORSDOF 3
ENDMDL
MODEL 3
REMARK VINA RESULT:    -6.512      0.096      1.586
REMARK INTER + INTRA:          -8.271
REMARK INTER:                  -7.656
REMARK INTRA:                  -0.615
REMARK UNBOUND:                -0.617
REMARK SMILES Clc1ccc(C(c2ccc(Cl)cc2)C(Cl)(Cl)Cl)cc1
REMARK SMILES IDX 6 1 14 2 15 3 16 4 17 5 5 6 4 7 18 8 3 9 19 10 2 11 1 12
REMARK SMILES IDX 7 13 8 14 13 15 9 16 12 17 10 18 11 19
REMARK H PARENT
REMARK Flexibility Score: inf
ROOT
ATOM      1  C   UNL     1      -1.323   1.643  -1.525  1.00  0.00     0.101 C 
ENDROOT
BRANCH   1   2
ATOM      2  C   UNL     1      -1.665   0.670  -2.730  1.00  0.00     0.201 C 
ATOM      3  Cl  UNL     1      -3.415   0.543  -3.102  1.00  0.00    -0.083 Cl
ATOM      4  Cl  UNL     1      -1.109  -1.009  -2.322  1.00  0.00    -0.083 Cl
ATOM      5  Cl  UNL     1      -0.796   1.125  -4.244  1.00  0.00    -0.083 Cl
ENDBRANCH   1   2
BRANCH   1   6
ATOM      6  C   UNL     1      -1.866   3.027  -1.639  1.00  0.00    -0.036 A 
ATOM      7  C   UNL     1      -2.030   3.610  -2.895  1.00  0.00     0.006 A 
ATOM      8  C   UNL     1      -2.209   3.739  -0.489  1.00  0.00     0.006 A 
ATOM      9  C   UNL     1      -2.537   4.906  -3.002  1.00  0.00     0.021 A 
ATOM     10  C   UNL     1      -2.717   5.034  -0.596  1.00  0.00     0.021 A 
ATOM     11  C   UNL     1      -2.881   5.617  -1.852  1.00  0.00     0.041 A 
ATOM     12  Cl  UNL     1      -3.506   7.215  -1.983  1.00  0.00    -0.084 Cl
ENDBRANCH   1   6
BRANCH   1  13
ATOM     13  C   UNL     1       0.139   1.613  -1.011  1.00  0.00    -0.036 A 
ATOM     14  C   UNL     1       0.405   0.888   0.117  1.00  0.00     0.006 A 
ATOM     15  C   UNL     1       1.078   2.315  -1.713  1.00  0.00     0.006 A 
ATOM     16  C   UNL     1       1.720   0.863   0.580  1.00  0.00     0.021 A 
ATOM     17  C   UNL     1       2.393   2.290  -1.249  1.00  0.00     0.021 A 
ATOM     18  C   UNL     1       2.715   1.563  -0.103  1.00  0.00     0.041 A 
ATOM     19  Cl  UNL     1       4.338   1.533   0.469  1.00  0.00    -0.084 Cl
ENDBRANCH   1  13
TORSDOF 3
ENDMDL
MODEL 4
REMARK VINA RESULT:    -6.395      2.327      4.682
REMARK INTER + INTRA:          -8.134
REMARK INTER:                  -7.566
REMARK INTRA:                  -0.568
REMARK UNBOUND:                -0.617
REMARK SMILES Clc1ccc(C(c2ccc(Cl)cc2)C(Cl)(Cl)Cl)cc1
REMARK SMILES IDX 6 1 14 2 15 3 16 4 17 5 5 6 4 7 18 8 3 9 19 10 2 11 1 12
REMARK SMILES IDX 7 13 8 14 13 15 9 16 12 17 10 18 11 19
REMARK H PARENT
REMARK Flexibility Score: inf
ROOT
ATOM      1  C   UNL     1      -0.197   1.473  -1.720  1.00  0.00     0.101 C 
ENDROOT
BRANCH   1   2
ATOM      2  C   UNL     1       0.191   0.917  -0.287  1.00  0.00     0.201 C 
ATOM      3  Cl  UNL     1      -0.864   1.499   1.042  1.00  0.00    -0.083 Cl
ATOM      4  Cl  UNL     1       1.875   1.453   0.129  1.00  0.00    -0.083 Cl
ATOM      5  Cl  UNL     1       0.220  -0.886  -0.238  1.00  0.00    -0.083 Cl
ENDBRANCH   1   2
BRANCH   1   6
ATOM      6  C   UNL     1      -0.137   2.955  -1.876  1.00  0.00    -0.036 A 
ATOM      7  C   UNL     1       0.444   3.514  -3.014  1.00  0.00     0.006 A 
ATOM      8  C   UNL     1      -0.661   3.783  -0.882  1.00  0.00     0.006 A 
ATOM      9  C   UNL     1       0.501   4.900  -3.159  1.00  0.00     0.021 A 
ATOM     10  C   UNL     1      -0.605   5.169  -1.028  1.00  0.00     0.021 A 
ATOM     11  C   UNL     1      -0.024   5.728  -2.166  1.00  0.00     0.041 A 
ATOM     12  Cl  UNL     1       0.047   7.438  -2.345  1.00  0.00    -0.084 Cl
ENDBRANCH   1   6
BRANCH   1  13
ATOM     13  C   UNL     1      -1.452   0.851  -2.382  1.00  0.00    -0.036 A 
ATOM     14  C   UNL     1      -1.267  -0.168  -3.274  1.00  0.00     0.006 A 
ATOM     15  C   UNL     1      -2.674   1.358  -2.037  1.00  0.00     0.006 A 
ATOM     16  C   UNL     1      -2.397  -0.726  -3.871  1.00  0.00     0.021 A 
ATOM     17  C   UNL     1      -3.804   0.799  -2.635  1.00  0.00     0.021 A 
ATOM     18  C   UNL     1      -3.666  -0.243  -3.551  1.00  0.00     0.041 A 
ATOM     19  Cl  UNL     1      -5.061  -0.932  -4.288  1.00  0.00    -0.084 Cl
ENDBRANCH   1  13
TORSDOF 3
ENDMDL
MODEL 5
REMARK VINA RESULT:    -6.077      1.184      5.446
REMARK INTER + INTRA:          -7.761
REMARK INTER:                  -7.116
REMARK INTRA:                  -0.644
REMARK UNBOUND:                -0.617
REMARK SMILES Clc1ccc(C(c2ccc(Cl)cc2)C(Cl)(Cl)Cl)cc1
REMARK SMILES IDX 6 1 14 2 15 3 16 4 17 5 5 6 4 7 18 8 3 9 19 10 2 11 1 12
REMARK SMILES IDX 7 13 8 14 13 15 9 16 12 17 10 18 11 19
REMARK H PARENT
REMARK Flexibility Score: inf
ROOT
ATOM      1  C   UNL     1      -1.504   2.679  -2.483  1.00  0.00     0.101 C 
ENDROOT
BRANCH   1   2
ATOM      2  C   UNL     1      -2.682   1.639  -2.695  1.00  0.00     0.201 C 
ATOM      3  Cl  UNL     1      -2.166  -0.078  -2.661  1.00  0.00    -0.083 Cl
ATOM      4  Cl  UNL     1      -3.438   1.911  -4.322  1.00  0.00    -0.083 Cl
ATOM      5  Cl  UNL     1      -4.009   1.855  -1.491  1.00  0.00    -0.083 Cl
ENDBRANCH   1   2
BRANCH   1   6
ATOM      6  C   UNL     1      -0.426   2.252  -1.545  1.00  0.00    -0.036 A 
ATOM      7  C   UNL     1      -0.756   1.623  -0.345  1.00  0.00     0.006 A 
ATOM      8  C   UNL     1       0.912   2.481  -1.868  1.00  0.00     0.006 A 
ATOM      9  C   UNL     1       0.252   1.224   0.534  1.00  0.00     0.021 A 
ATOM     10  C   UNL     1       1.919   2.082  -0.990  1.00  0.00     0.021 A 
ATOM     11  C   UNL     1       1.590   1.454   0.210  1.00  0.00     0.041 A 
ATOM     12  Cl  UNL     1       2.833   0.962   1.294  1.00  0.00    -0.084 Cl
ENDBRANCH   1   6
BRANCH   1  13
ATOM     13  C   UNL     1      -1.920   4.158  -2.284  1.00  0.00    -0.036 A 
ATOM     14  C   UNL     1      -2.073   4.935  -3.398  1.00  0.00     0.006 A 
ATOM     15  C   UNL     1      -2.108   4.603  -1.005  1.00  0.00     0.006 A 
ATOM     16  C   UNL     1      -2.446   6.267  -3.218  1.00  0.00     0.021 A 
ATOM     17  C   UNL     1      -2.481   5.935  -0.826  1.00  0.00     0.021 A 
ATOM     18  C   UNL     1      -2.650   6.767  -1.932  1.00  0.00     0.041 A 
ATOM     19  Cl  UNL     1      -3.110   8.411  -1.710  1.00  0.00    -0.084 Cl
ENDBRANCH   1  13
TORSDOF 3
ENDMDL
