MODEL 1
REMARK VINA RESULT:    -6.909      0.000      0.000
REMARK INTER + INTRA:         -11.398
REMARK INTER:                 -10.140
REMARK INTRA:                  -1.258
REMARK UNBOUND:                -1.258
REMARK SMILES CC1(C)C(C=C(Br)Br)C1C(=O)OC(C#N)c1cccc(Oc2ccccc2)c1
REMARK SMILES IDX 13 1 12 2 10 3 11 4 9 5 4 6 2 7 1 8 3 9 5 10 7 11 6 12 8 13
REMARK SMILES IDX 16 14 28 15 17 16 20 17 18 18 19 19 21 20 22 21 23 22 27 23
REMARK SMILES IDX 24 24 26 25 25 26 14 27 15 28
REMARK H PARENT
REMARK Flexibility Score: inf
ROOT
ATOM      1  C   UNL     1      -4.708   1.421  -2.881  1.00  0.00     0.309 C
ENDROOT
BRANCH   1   2
ATOM      2  O   UNL     1      -3.384   1.663  -3.377  1.00  0.00    -0.442 OA
BRANCH   2   3
ATOM      3  C   UNL     1      -2.423   1.797  -2.425  1.00  0.00     0.311 C
ATOM      4  O   UNL     1      -1.827   0.898  -1.848  1.00  0.00    -0.252 OA
BRANCH   3   5
ATOM      5  C   UNL     1      -2.145   3.227  -2.132  1.00  0.00     0.113 C
ATOM      6  C   UNL     1      -1.126   3.552  -1.087  1.00  0.00     0.035 C
ATOM      7  C   UNL     1      -2.580   3.822  -0.831  1.00  0.00    -0.014 C
ATOM      8  C   UNL     1      -3.268   2.961   0.177  1.00  0.00     0.012 C
ATOM      9  C   UNL     1      -3.090   5.224  -0.864  1.00  0.00     0.012 C
BRANCH   6  10
ATOM     10  C   UNL     1      -0.449   2.454  -0.416  1.00  0.00     0.001 C
ATOM     11  Br  UNL     1       2.008   2.825  -1.796  1.00  0.00    -0.043 Br
ATOM     12  C   UNL     1       0.815   2.033  -0.591  1.00  0.00     0.057 C
ATOM     13  Br  UNL     1       1.497   0.584   0.386  1.00  0.00    -0.043 Br
ENDBRANCH   6  10
ENDBRANCH   3   5
ENDBRANCH   2   3
ENDBRANCH   1   2
BRANCH   1  14
ATOM     14  C   UNL     1      -5.481   2.696  -2.850  1.00  0.00     0.011 A
ATOM     15  C   UNL     1      -5.071   3.780  -3.627  1.00  0.00     0.055 A
ATOM     16  C   UNL     1      -6.615   2.804  -2.046  1.00  0.00     0.009 A
ATOM     17  C   UNL     1      -5.794   4.971  -3.598  1.00  0.00     0.127 A
ATOM     18  C   UNL     1      -7.338   3.997  -2.017  1.00  0.00     0.004 A
ATOM     19  C   UNL     1      -6.927   5.080  -2.793  1.00  0.00     0.047 A
BRANCH  17  20
ATOM     20  O   UNL     1      -5.394   6.030  -4.356  1.00  0.00    -0.457 OA
BRANCH  20  21
ATOM     21  C   UNL     1      -4.356   6.810  -3.873  1.00  0.00     0.127 A
ATOM     22  C   UNL     1      -3.067   6.559  -4.307  1.00  0.00     0.047 A
ATOM     23  C   UNL     1      -4.635   7.820  -2.970  1.00  0.00     0.047 A
ATOM     24  C   UNL     1      -2.021   7.344  -3.821  1.00  0.00     0.004 A
ATOM     25  C   UNL     1      -3.590   8.604  -2.484  1.00  0.00     0.004 A
ATOM     26  C   UNL     1      -2.283   8.368  -2.910  1.00  0.00     0.000 A
ENDBRANCH  20  21
ENDBRANCH  17  20
ENDBRANCH   1  14
BRANCH   1  27
ATOM     27  C   UNL     1      -5.357   0.383  -3.707  1.00  0.00     0.113 C
ATOM     28  N   UNL     1      -5.877  -0.426  -4.357  1.00  0.00    -0.194 NA
ENDBRANCH   1  27
TORSDOF 8
ENDMDL
MODEL 2
REMARK VINA RESULT:    -6.858      2.340      4.450
REMARK INTER + INTRA:         -11.322
REMARK INTER:                 -10.197
REMARK INTRA:                  -1.126
REMARK UNBOUND:                -1.258
REMARK SMILES CC1(C)C(C=C(Br)Br)C1C(=O)OC(C#N)c1cccc(Oc2ccccc2)c1
REMARK SMILES IDX 13 1 12 2 10 3 11 4 9 5 4 6 2 7 1 8 3 9 5 10 7 11 6 12 8 13
REMARK SMILES IDX 16 14 28 15 17 16 20 17 18 18 19 19 21 20 22 21 23 22 27 23
REMARK SMILES IDX 24 24 26 25 25 26 14 27 15 28
REMARK H PARENT
REMARK Flexibility Score: inf
ROOT
ATOM      1  C   UNL     1      -4.344   1.534  -2.474  1.00  0.00     0.309 C
ENDROOT
BRANCH   1   2
ATOM      2  O   UNL     1      -2.992   1.630  -2.943  1.00  0.00    -0.442 OA
BRANCH   2   3
ATOM      3  C   UNL     1      -2.060   1.025  -2.159  1.00  0.00     0.311 C
ATOM      4  O   UNL     1      -1.394   0.038  -2.435  1.00  0.00    -0.252 OA
BRANCH   3   5
ATOM      5  C   UNL     1      -1.919   1.719  -0.853  1.00  0.00     0.113 C
ATOM      6  C   UNL     1      -1.038   2.925  -0.782  1.00  0.00     0.035 C
ATOM      7  C   UNL     1      -0.626   1.650  -0.106  1.00  0.00    -0.014 C
ATOM      8  C   UNL     1       0.524   0.904  -0.696  1.00  0.00     0.012 C
ATOM      9  C   UNL     1      -0.707   1.541   1.381  1.00  0.00     0.012 C
BRANCH   6  10
ATOM     10  C   UNL     1      -0.370   3.366  -1.997  1.00  0.00     0.001 C
ATOM     11  Br  UNL     1      -1.078   6.099  -1.665  1.00  0.00    -0.043 Br
ATOM     12  C   UNL     1      -0.295   4.613  -2.492  1.00  0.00     0.057 C
ATOM     13  Br  UNL     1       0.624   4.967  -4.088  1.00  0.00    -0.043 Br
ENDBRANCH   6  10
ENDBRANCH   3   5
ENDBRANCH   2   3
ENDBRANCH   1   2
BRANCH   1  14
ATOM     14  C   UNL     1      -4.988   2.878  -2.499  1.00  0.00     0.011 A
ATOM     15  C   UNL     1      -6.377   2.988  -2.424  1.00  0.00     0.055 A
ATOM     16  C   UNL     1      -4.202   4.026  -2.595  1.00  0.00     0.009 A
ATOM     17  C   UNL     1      -6.979   4.245  -2.446  1.00  0.00     0.127 A
ATOM     18  C   UNL     1      -4.805   5.283  -2.618  1.00  0.00     0.004 A
ATOM     19  C   UNL     1      -6.193   5.394  -2.544  1.00  0.00     0.047 A
BRANCH  17  20
ATOM     20  O   UNL     1      -8.334   4.354  -2.374  1.00  0.00    -0.457 OA
BRANCH  20  21
ATOM     21  C   UNL     1      -8.909   4.412  -1.115  1.00  0.00     0.127 A
ATOM     22  C   UNL     1      -9.629   3.327  -0.652  1.00  0.00     0.047 A
ATOM     23  C   UNL     1      -8.746   5.556  -0.353  1.00  0.00     0.047 A
ATOM     24  C   UNL     1     -10.209   3.386   0.616  1.00  0.00     0.004 A
ATOM     25  C   UNL     1      -9.325   5.615   0.914  1.00  0.00     0.004 A
ATOM     26  C   UNL     1     -10.056   4.530   1.400  1.00  0.00     0.000 A
ENDBRANCH  20  21
ENDBRANCH  17  20
ENDBRANCH   1  14
BRANCH   1  27
ATOM     27  C   UNL     1      -5.074   0.539  -3.286  1.00  0.00     0.113 C
ATOM     28  N   UNL     1      -5.655  -0.243  -3.917  1.00  0.00    -0.194 NA
ENDBRANCH   1  27
TORSDOF 8
ENDMDL
MODEL 3
REMARK VINA RESULT:    -6.819      1.597      2.109
REMARK INTER + INTRA:         -11.266
REMARK INTER:                  -9.796
REMARK INTRA:                  -1.470
REMARK UNBOUND:                -1.258
REMARK SMILES CC1(C)C(C=C(Br)Br)C1C(=O)OC(C#N)c1cccc(Oc2ccccc2)c1
REMARK SMILES IDX 13 1 12 2 10 3 11 4 9 5 4 6 2 7 1 8 3 9 5 10 7 11 6 12 8 13
REMARK SMILES IDX 16 14 28 15 17 16 20 17 18 18 19 19 21 20 22 21 23 22 27 23
REMARK SMILES IDX 24 24 26 25 25 26 14 27 15 28
REMARK H PARENT
REMARK Flexibility Score: inf
ROOT
ATOM      1  C   UNL     1      -4.439   1.157  -2.843  1.00  0.00     0.309 C
ENDROOT
BRANCH   1   2
ATOM      2  O   UNL     1      -3.078   1.265  -3.281  1.00  0.00    -0.442 OA
BRANCH   2   3
ATOM      3  C   UNL     1      -2.148   0.775  -2.418  1.00  0.00     0.311 C
ATOM      4  O   UNL     1      -1.416  -0.189  -2.593  1.00  0.00    -0.252 OA
BRANCH   3   5
ATOM      5  C   UNL     1      -2.102   1.569  -1.163  1.00  0.00     0.113 C
ATOM      6  C   UNL     1      -1.284   2.821  -1.145  1.00  0.00     0.035 C
ATOM      7  C   UNL     1      -0.844   1.622  -0.357  1.00  0.00    -0.014 C
ATOM      8  C   UNL     1       0.368   0.895  -0.838  1.00  0.00     0.012 C
ATOM      9  C   UNL     1      -0.990   1.619   1.128  1.00  0.00     0.012 C
BRANCH   6  10
ATOM     10  C   UNL     1      -0.582   3.205  -2.360  1.00  0.00     0.001 C
ATOM     11  Br  UNL     1       0.231   5.738  -1.359  1.00  0.00    -0.043 Br
ATOM     12  C   UNL     1       0.080   4.349  -2.604  1.00  0.00     0.057 C
ATOM     13  Br  UNL     1       0.924   4.646  -4.252  1.00  0.00    -0.043 Br
ENDBRANCH   6  10
ENDBRANCH   3   5
ENDBRANCH   2   3
ENDBRANCH   1   2
BRANCH   1  14
ATOM     14  C   UNL     1      -5.104   2.489  -2.913  1.00  0.00     0.011 A
ATOM     15  C   UNL     1      -4.604   3.474  -3.766  1.00  0.00     0.055 A
ATOM     16  C   UNL     1      -6.227   2.750  -2.128  1.00  0.00     0.009 A
ATOM     17  C   UNL     1      -5.227   4.720  -3.832  1.00  0.00     0.127 A
ATOM     18  C   UNL     1      -6.849   3.996  -2.195  1.00  0.00     0.004 A
ATOM     19  C   UNL     1      -6.349   4.982  -3.046  1.00  0.00     0.047 A
BRANCH  17  20
ATOM     20  O   UNL     1      -4.740   5.682  -4.663  1.00  0.00    -0.457 OA
BRANCH  20  21
ATOM     21  C   UNL     1      -3.820   6.576  -4.141  1.00  0.00     0.127 A
ATOM     22  C   UNL     1      -2.519   6.555  -4.611  1.00  0.00     0.047 A
ATOM     23  C   UNL     1      -4.225   7.467  -3.164  1.00  0.00     0.047 A
ATOM     24  C   UNL     1      -1.591   7.456  -4.086  1.00  0.00     0.004 A
ATOM     25  C   UNL     1      -3.298   8.367  -2.638  1.00  0.00     0.004 A
ATOM     26  C   UNL     1      -1.982   8.362  -3.100  1.00  0.00     0.000 A
ENDBRANCH  20  21
ENDBRANCH  17  20
ENDBRANCH   1  14
BRANCH   1  27
ATOM     27  C   UNL     1      -5.132   0.132  -3.649  1.00  0.00     0.113 C
ATOM     28  N   UNL     1      -5.672  -0.681  -4.277  1.00  0.00    -0.194 NA
ENDBRANCH   1  27
TORSDOF 8
ENDMDL
MODEL 4
REMARK VINA RESULT:    -6.773      2.997      4.962
REMARK INTER + INTRA:         -11.198
REMARK INTER:                  -9.849
REMARK INTRA:                  -1.349
REMARK UNBOUND:                -1.258
REMARK SMILES CC1(C)C(C=C(Br)Br)C1C(=O)OC(C#N)c1cccc(Oc2ccccc2)c1
REMARK SMILES IDX 13 1 12 2 10 3 11 4 9 5 4 6 2 7 1 8 3 9 5 10 7 11 6 12 8 13
REMARK SMILES IDX 16 14 28 15 17 16 20 17 18 18 19 19 21 20 22 21 23 22 27 23
REMARK SMILES IDX 24 24 26 25 25 26 14 27 15 28
REMARK H PARENT
REMARK Flexibility Score: inf
ROOT
ATOM      1  C   UNL     1       0.778   2.689  -2.840  1.00  0.00     0.309 C
ENDROOT
BRANCH   1   2
ATOM      2  O   UNL     1      -0.397   1.936  -2.511  1.00  0.00    -0.442 OA
BRANCH   2   3
ATOM      3  C   UNL     1      -1.067   1.412  -3.572  1.00  0.00     0.311 C
ATOM      4  O   UNL     1      -0.664   0.559  -4.351  1.00  0.00    -0.252 OA
BRANCH   3   5
ATOM      5  C   UNL     1      -2.421   2.010  -3.707  1.00  0.00     0.113 C
ATOM      6  C   UNL     1      -3.216   2.253  -2.464  1.00  0.00     0.035 C
ATOM      7  C   UNL     1      -3.635   1.184  -3.429  1.00  0.00    -0.014 C
ATOM      8  C   UNL     1      -3.474  -0.234  -2.991  1.00  0.00     0.012 C
ATOM      9  C   UNL     1      -4.821   1.404  -4.309  1.00  0.00     0.012 C
BRANCH   6  10
ATOM     10  C   UNL     1      -2.622   1.902  -1.183  1.00  0.00     0.001 C
ATOM     11  Br  UNL     1      -3.555   4.234   0.146  1.00  0.00    -0.043 Br
ATOM     12  C   UNL     1      -2.668   2.596  -0.034  1.00  0.00     0.057 C
ATOM     13  Br  UNL     1      -1.828   1.957   1.517  1.00  0.00    -0.043 Br
ENDBRANCH   6  10
ENDBRANCH   3   5
ENDBRANCH   2   3
ENDBRANCH   1   2
BRANCH   1  14
ATOM     14  C   UNL     1       0.411   4.105  -3.125  1.00  0.00     0.011 A
ATOM     15  C   UNL     1      -0.388   4.814  -2.227  1.00  0.00     0.055 A
ATOM     16  C   UNL     1       0.868   4.723  -4.290  1.00  0.00     0.009 A
ATOM     17  C   UNL     1      -0.731   6.139  -2.494  1.00  0.00     0.127 A
ATOM     18  C   UNL     1       0.524   6.048  -4.556  1.00  0.00     0.004 A
ATOM     19  C   UNL     1      -0.275   6.756  -3.659  1.00  0.00     0.047 A
BRANCH  17  20
ATOM     20  O   UNL     1      -1.511   6.830  -1.619  1.00  0.00    -0.457 OA
BRANCH  20  21
ATOM     21  C   UNL     1      -2.732   7.298  -2.076  1.00  0.00     0.127 A
ATOM     22  C   UNL     1      -3.012   8.649  -1.989  1.00  0.00     0.047 A
ATOM     23  C   UNL     1      -3.641   6.400  -2.609  1.00  0.00     0.047 A
ATOM     24  C   UNL     1      -4.242   9.121  -2.449  1.00  0.00     0.004 A
ATOM     25  C   UNL     1      -4.870   6.871  -3.068  1.00  0.00     0.004 A
ATOM     26  C   UNL     1      -5.171   8.231  -2.990  1.00  0.00     0.000 A
ENDBRANCH  20  21
ENDBRANCH  17  20
ENDBRANCH   1  14
BRANCH   1  27
ATOM     27  C   UNL     1       1.760   2.566  -1.744  1.00  0.00     0.113 C
ATOM     28  N   UNL     1       2.540   2.472  -0.890  1.00  0.00    -0.194 NA
ENDBRANCH   1  27
TORSDOF 8
ENDMDL
MODEL 5
REMARK VINA RESULT:    -6.758      2.136      3.134
REMARK INTER + INTRA:         -11.176
REMARK INTER:                 -10.004
REMARK INTRA:                  -1.172
REMARK UNBOUND:                -1.258
REMARK SMILES CC1(C)C(C=C(Br)Br)C1C(=O)OC(C#N)c1cccc(Oc2ccccc2)c1
REMARK SMILES IDX 13 1 12 2 10 3 11 4 9 5 4 6 2 7 1 8 3 9 5 10 7 11 6 12 8 13
REMARK SMILES IDX 16 14 28 15 17 16 20 17 18 18 19 19 21 20 22 21 23 22 27 23
REMARK SMILES IDX 24 24 26 25 25 26 14 27 15 28
REMARK H PARENT
REMARK Flexibility Score: inf
ROOT
ATOM      1  C   UNL     1      -2.397   1.251  -3.352  1.00  0.00     0.309 C
ENDROOT
BRANCH   1   2
ATOM      2  O   UNL     1      -1.316   1.966  -3.966  1.00  0.00    -0.442 OA
BRANCH   2   3
ATOM      3  C   UNL     1      -0.195   2.091  -3.205  1.00  0.00     0.311 C
ATOM      4  O   UNL     1       0.924   2.402  -3.587  1.00  0.00    -0.252 OA
BRANCH   3   5
ATOM      5  C   UNL     1      -0.475   1.795  -1.776  1.00  0.00     0.113 C
ATOM      6  C   UNL     1      -0.356   2.907  -0.785  1.00  0.00     0.035 C
ATOM      7  C   UNL     1       0.641   1.786  -0.781  1.00  0.00    -0.014 C
ATOM      8  C   UNL     1       2.028   2.103  -1.232  1.00  0.00     0.012 C
ATOM      9  C   UNL     1       0.585   0.749   0.291  1.00  0.00     0.012 C
BRANCH   6  10
ATOM     10  C   UNL     1       0.019   4.227  -1.268  1.00  0.00     0.001 C
ATOM     11  Br  UNL     1      -2.530   5.383  -0.767  1.00  0.00    -0.043 Br
ATOM     12  C   UNL     1      -0.744   5.332  -1.328  1.00  0.00     0.057 C
ATOM     13  Br  UNL     1      -0.060   6.947  -1.991  1.00  0.00    -0.043 Br
ENDBRANCH   6  10
ENDBRANCH   3   5
ENDBRANCH   2   3
ENDBRANCH   1   2
BRANCH   1  14
ATOM     14  C   UNL     1      -3.609   2.115  -3.292  1.00  0.00     0.011 A
ATOM     15  C   UNL     1      -3.650   3.311  -4.010  1.00  0.00     0.055 A
ATOM     16  C   UNL     1      -4.704   1.728  -2.519  1.00  0.00     0.009 A
ATOM     17  C   UNL     1      -4.785   4.119  -3.954  1.00  0.00     0.127 A
ATOM     18  C   UNL     1      -5.839   2.538  -2.463  1.00  0.00     0.004 A
ATOM     19  C   UNL     1      -5.879   3.733  -3.180  1.00  0.00     0.047 A
BRANCH  17  20
ATOM     20  O   UNL     1      -4.826   5.286  -4.654  1.00  0.00    -0.457 OA
BRANCH  20  21
ATOM     21  C   UNL     1      -4.398   6.437  -4.011  1.00  0.00     0.127 A
ATOM     22  C   UNL     1      -5.263   7.090  -3.153  1.00  0.00     0.047 A
ATOM     23  C   UNL     1      -3.116   6.903  -4.245  1.00  0.00     0.047 A
ATOM     24  C   UNL     1      -4.833   8.249  -2.506  1.00  0.00     0.004 A
ATOM     25  C   UNL     1      -2.687   8.061  -3.599  1.00  0.00     0.004 A
ATOM     26  C   UNL     1      -3.544   8.734  -2.728  1.00  0.00     0.000 A
ENDBRANCH  20  21
ENDBRANCH  17  20
ENDBRANCH   1  14
BRANCH   1  27
ATOM     27  C   UNL     1      -2.632  -0.008  -4.089  1.00  0.00     0.113 C
ATOM     28  N   UNL     1      -2.822  -1.000  -4.660  1.00  0.00    -0.194 NA
ENDBRANCH   1  27
TORSDOF 8
ENDMDL
