MODEL 1
REMARK VINA RESULT:    -6.590      0.000      0.000
REMARK INTER + INTRA:         -12.478
REMARK INTER:                  -9.286
REMARK INTRA:                  -3.192
REMARK UNBOUND:                -3.192
REMARK SMILES CC1(C)[C@H](C=C(Cl)Cl)[C@H]1C(=O)OCc1cccc(Oc2ccccc2)c1
REMARK SMILES IDX 13 1 12 2 10 3 11 4 9 5 4 6 2 7 1 8 3 9 5 10 7 11 6 12 8 13
REMARK SMILES IDX 14 14 26 15 15 16 18 17 16 18 17 19 19 20 20 21 21 22 25 23
REMARK SMILES IDX 22 24 24 25 23 26
REMARK H PARENT
REMARK Flexibility Score: inf
ROOT
ATOM      1  C   UNL     1      -0.473   6.878  -3.180  1.00  0.00     0.268 C 
ENDROOT
BRANCH   1   2
ATOM      2  O   UNL     1      -0.284   5.487  -2.956  1.00  0.00    -0.461 OA
BRANCH   2   3
ATOM      3  C   UNL     1       0.052   5.130  -1.682  1.00  0.00     0.310 C 
ATOM      4  O   UNL     1       0.745   5.770  -0.905  1.00  0.00    -0.252 OA
BRANCH   3   5
ATOM      5  C   UNL     1      -0.535   3.820  -1.302  1.00  0.00     0.113 C 
ATOM      6  C   UNL     1      -1.741   3.341  -2.046  1.00  0.00     0.035 C 
ATOM      7  C   UNL     1      -1.862   3.766  -0.612  1.00  0.00    -0.014 C 
ATOM      8  C   UNL     1      -2.120   2.701   0.400  1.00  0.00     0.012 C 
ATOM      9  C   UNL     1      -2.507   5.068  -0.276  1.00  0.00     0.012 C 
BRANCH   6  10
ATOM     10  C   UNL     1      -1.814   1.932  -2.406  1.00  0.00     0.011 C 
ATOM     11  Cl  UNL     1      -0.132   2.147  -4.500  1.00  0.00    -0.071 Cl
ATOM     12  C   UNL     1      -1.184   1.311  -3.416  1.00  0.00     0.103 C 
ATOM     13  Cl  UNL     1      -1.409  -0.384  -3.676  1.00  0.00    -0.071 Cl
ENDBRANCH   6  10
ENDBRANCH   3   5
ENDBRANCH   2   3
ENDBRANCH   1   2
BRANCH   1  14
ATOM     14  C   UNL     1      -1.921   7.210  -3.047  1.00  0.00    -0.007 A 
ATOM     15  C   UNL     1      -2.881   6.397  -3.652  1.00  0.00     0.054 A 
ATOM     16  C   UNL     1      -2.316   8.331  -2.317  1.00  0.00     0.007 A 
ATOM     17  C   UNL     1      -4.235   6.708  -3.527  1.00  0.00     0.127 A 
ATOM     18  C   UNL     1      -3.669   8.642  -2.193  1.00  0.00     0.004 A 
ATOM     19  C   UNL     1      -4.629   7.829  -2.798  1.00  0.00     0.047 A 
BRANCH  17  20
ATOM     20  O   UNL     1      -5.172   5.915  -4.116  1.00  0.00    -0.457 OA
BRANCH  20  21
ATOM     21  C   UNL     1      -5.226   4.587  -3.732  1.00  0.00     0.127 A 
ATOM     22  C   UNL     1      -5.556   4.278  -2.423  1.00  0.00     0.047 A 
ATOM     23  C   UNL     1      -4.951   3.603  -4.663  1.00  0.00     0.047 A 
ATOM     24  C   UNL     1      -5.611   2.940  -2.036  1.00  0.00     0.004 A 
ATOM     25  C   UNL     1      -5.007   2.264  -4.274  1.00  0.00     0.004 A 
ATOM     26  C   UNL     1      -5.338   1.933  -2.960  1.00  0.00     0.000 A 
ENDBRANCH  20  21
ENDBRANCH  17  20
ENDBRANCH   1  14
TORSDOF 7
ENDMDL
MODEL 2
REMARK VINA RESULT:    -6.484      3.331      5.331
REMARK INTER + INTRA:         -12.330
REMARK INTER:                 -10.157
REMARK INTRA:                  -2.173
REMARK UNBOUND:                -3.192
REMARK SMILES CC1(C)[C@H](C=C(Cl)Cl)[C@H]1C(=O)OCc1cccc(Oc2ccccc2)c1
REMARK SMILES IDX 13 1 12 2 10 3 11 4 9 5 4 6 2 7 1 8 3 9 5 10 7 11 6 12 8 13
REMARK SMILES IDX 14 14 26 15 15 16 18 17 16 18 17 19 19 20 20 21 21 22 25 23
REMARK SMILES IDX 22 24 24 25 23 26
REMARK H PARENT
REMARK Flexibility Score: inf
ROOT
ATOM      1  C   UNL     1      -2.842   3.565   0.216  1.00  0.00     0.268 C 
ENDROOT
BRANCH   1   2
ATOM      2  O   UNL     1      -2.384   4.900   0.035  1.00  0.00    -0.461 OA
BRANCH   2   3
ATOM      3  C   UNL     1      -1.266   5.045  -0.733  1.00  0.00     0.310 C 
ATOM      4  O   UNL     1      -0.281   4.320  -0.732  1.00  0.00    -0.252 OA
BRANCH   3   5
ATOM      5  C   UNL     1      -1.358   6.229  -1.625  1.00  0.00     0.113 C 
ATOM      6  C   UNL     1      -2.697   6.595  -2.183  1.00  0.00     0.035 C 
ATOM      7  C   UNL     1      -1.629   6.049  -3.084  1.00  0.00    -0.014 C 
ATOM      8  C   UNL     1      -1.015   6.988  -4.067  1.00  0.00     0.012 C 
ATOM      9  C   UNL     1      -1.729   4.649  -3.590  1.00  0.00     0.012 C 
BRANCH   6  10
ATOM     10  C   UNL     1      -3.060   8.004  -2.238  1.00  0.00     0.011 C 
ATOM     11  Cl  UNL     1      -5.628   7.549  -2.917  1.00  0.00    -0.071 Cl
ATOM     12  C   UNL     1      -4.259   8.530  -2.534  1.00  0.00     0.103 C 
ATOM     13  Cl  UNL     1      -4.482  10.244  -2.548  1.00  0.00    -0.071 Cl
ENDBRANCH   6  10
ENDBRANCH   3   5
ENDBRANCH   2   3
ENDBRANCH   1   2
BRANCH   1  14
ATOM     14  C   UNL     1      -3.758   3.199  -0.901  1.00  0.00    -0.007 A 
ATOM     15  C   UNL     1      -4.842   4.021  -1.212  1.00  0.00     0.054 A 
ATOM     16  C   UNL     1      -3.531   2.035  -1.636  1.00  0.00     0.007 A 
ATOM     17  C   UNL     1      -5.699   3.678  -2.258  1.00  0.00     0.127 A 
ATOM     18  C   UNL     1      -4.389   1.692  -2.681  1.00  0.00     0.004 A 
ATOM     19  C   UNL     1      -5.472   2.514  -2.992  1.00  0.00     0.047 A 
BRANCH  17  20
ATOM     20  O   UNL     1      -6.756   4.479  -2.562  1.00  0.00    -0.457 OA
BRANCH  20  21
ATOM     21  C   UNL     1      -7.785   4.565  -1.640  1.00  0.00     0.127 A 
ATOM     22  C   UNL     1      -8.085   5.794  -1.077  1.00  0.00     0.047 A 
ATOM     23  C   UNL     1      -8.488   3.423  -1.305  1.00  0.00     0.047 A 
ATOM     24  C   UNL     1      -9.121   5.880  -0.149  1.00  0.00     0.004 A 
ATOM     25  C   UNL     1      -9.525   3.510  -0.375  1.00  0.00     0.004 A 
ATOM     26  C   UNL     1      -9.842   4.739   0.202  1.00  0.00     0.000 A 
ENDBRANCH  20  21
ENDBRANCH  17  20
ENDBRANCH   1  14
TORSDOF 7
ENDMDL
MODEL 3
REMARK VINA RESULT:    -6.275      2.186      4.669
REMARK INTER + INTRA:         -12.034
REMARK INTER:                  -9.140
REMARK INTRA:                  -2.894
REMARK UNBOUND:                -3.192
REMARK SMILES CC1(C)[C@H](C=C(Cl)Cl)[C@H]1C(=O)OCc1cccc(Oc2ccccc2)c1
REMARK SMILES IDX 13 1 12 2 10 3 11 4 9 5 4 6 2 7 1 8 3 9 5 10 7 11 6 12 8 13
REMARK SMILES IDX 14 14 26 15 15 16 18 17 16 18 17 19 19 20 20 21 21 22 25 23
REMARK SMILES IDX 22 24 24 25 23 26
REMARK H PARENT
REMARK Flexibility Score: inf
ROOT
ATOM      1  C   UNL     1      -5.582   4.697  -2.454  1.00  0.00     0.268 C 
ENDROOT
BRANCH   1   2
ATOM      2  O   UNL     1      -4.760   3.670  -1.914  1.00  0.00    -0.461 OA
BRANCH   2   3
ATOM      3  C   UNL     1      -4.770   2.484  -2.589  1.00  0.00     0.310 C 
ATOM      4  O   UNL     1      -5.738   1.954  -3.117  1.00  0.00    -0.252 OA
BRANCH   3   5
ATOM      5  C   UNL     1      -3.424   1.859  -2.629  1.00  0.00     0.113 C 
ATOM      6  C   UNL     1      -2.253   2.666  -2.166  1.00  0.00     0.035 C 
ATOM      7  C   UNL     1      -2.408   2.330  -3.620  1.00  0.00    -0.014 C 
ATOM      8  C   UNL     1      -1.444   1.354  -4.206  1.00  0.00     0.012 C 
ATOM      9  C   UNL     1      -2.837   3.386  -4.584  1.00  0.00     0.012 C 
BRANCH   6  10
ATOM     10  C   UNL     1      -1.235   2.006  -1.361  1.00  0.00     0.011 C 
ATOM     11  Cl  UNL     1      -2.364   2.646   1.000  1.00  0.00    -0.071 Cl
ATOM     12  C   UNL     1      -1.172   1.929  -0.023  1.00  0.00     0.103 C 
ATOM     13  Cl  UNL     1       0.133   1.093   0.744  1.00  0.00    -0.071 Cl
ENDBRANCH   6  10
ENDBRANCH   3   5
ENDBRANCH   2   3
ENDBRANCH   1   2
BRANCH   1  14
ATOM     14  C   UNL     1      -4.829   5.984  -2.460  1.00  0.00    -0.007 A 
ATOM     15  C   UNL     1      -3.485   6.007  -2.087  1.00  0.00     0.054 A 
ATOM     16  C   UNL     1      -5.469   7.164  -2.839  1.00  0.00     0.007 A 
ATOM     17  C   UNL     1      -2.781   7.211  -2.093  1.00  0.00     0.127 A 
ATOM     18  C   UNL     1      -4.765   8.368  -2.844  1.00  0.00     0.004 A 
ATOM     19  C   UNL     1      -3.421   8.391  -2.471  1.00  0.00     0.047 A 
BRANCH  17  20
ATOM     20  O   UNL     1      -1.470   7.235  -1.729  1.00  0.00    -0.457 OA
BRANCH  20  21
ATOM     21  C   UNL     1      -0.619   6.321  -2.327  1.00  0.00     0.127 A 
ATOM     22  C   UNL     1       0.135   5.479  -1.527  1.00  0.00     0.047 A 
ATOM     23  C   UNL     1      -0.543   6.272  -3.706  1.00  0.00     0.047 A 
ATOM     24  C   UNL     1       0.992   4.559  -2.129  1.00  0.00     0.004 A 
ATOM     25  C   UNL     1       0.315   5.350  -4.308  1.00  0.00     0.004 A 
ATOM     26  C   UNL     1       1.081   4.493  -3.519  1.00  0.00     0.000 A 
ENDBRANCH  20  21
ENDBRANCH  17  20
ENDBRANCH   1  14
TORSDOF 7
ENDMDL
MODEL 4
REMARK VINA RESULT:    -6.231      2.338      4.620
REMARK INTER + INTRA:         -11.973
REMARK INTER:                  -9.746
REMARK INTRA:                  -2.227
REMARK UNBOUND:                -3.192
REMARK SMILES CC1(C)[C@H](C=C(Cl)Cl)[C@H]1C(=O)OCc1cccc(Oc2ccccc2)c1
REMARK SMILES IDX 13 1 12 2 10 3 11 4 9 5 4 6 2 7 1 8 3 9 5 10 7 11 6 12 8 13
REMARK SMILES IDX 14 14 26 15 15 16 18 17 16 18 17 19 19 20 20 21 21 22 25 23
REMARK SMILES IDX 22 24 24 25 23 26
REMARK H PARENT
REMARK Flexibility Score: inf
ROOT
ATOM      1  C   UNL     1      -4.498   1.958  -4.107  1.00  0.00     0.268 C 
ENDROOT
BRANCH   1   2
ATOM      2  O   UNL     1      -3.114   1.954  -3.783  1.00  0.00    -0.461 OA
BRANCH   2   3
ATOM      3  C   UNL     1      -2.798   1.501  -2.535  1.00  0.00     0.310 C 
ATOM      4  O   UNL     1      -3.338   0.584  -1.934  1.00  0.00    -0.252 OA
BRANCH   3   5
ATOM      5  C   UNL     1      -1.673   2.266  -1.938  1.00  0.00     0.113 C 
ATOM      6  C   UNL     1      -1.345   2.036  -0.497  1.00  0.00     0.035 C 
ATOM      7  C   UNL     1      -1.947   3.340  -0.934  1.00  0.00    -0.014 C 
ATOM      8  C   UNL     1      -1.072   4.547  -0.892  1.00  0.00     0.012 C 
ATOM      9  C   UNL     1      -3.376   3.636  -0.628  1.00  0.00     0.012 C 
BRANCH   6  10
ATOM     10  C   UNL     1       0.057   1.963  -0.112  1.00  0.00     0.011 C 
ATOM     11  Cl  UNL     1       0.180  -0.726  -0.216  1.00  0.00    -0.071 Cl
ATOM     12  C   UNL     1       0.808   0.861   0.040  1.00  0.00     0.103 C 
ATOM     13  Cl  UNL     1       2.467   0.992   0.510  1.00  0.00    -0.071 Cl
ENDBRANCH   6  10
ENDBRANCH   3   5
ENDBRANCH   2   3
ENDBRANCH   1   2
BRANCH   1  14
ATOM     14  C   UNL     1      -5.126   3.208  -3.589  1.00  0.00    -0.007 A 
ATOM     15  C   UNL     1      -4.620   4.451  -3.969  1.00  0.00     0.054 A 
ATOM     16  C   UNL     1      -6.219   3.132  -2.725  1.00  0.00     0.007 A 
ATOM     17  C   UNL     1      -5.208   5.619  -3.484  1.00  0.00     0.127 A 
ATOM     18  C   UNL     1      -6.806   4.301  -2.240  1.00  0.00     0.004 A 
ATOM     19  C   UNL     1      -6.300   5.544  -2.620  1.00  0.00     0.047 A 
BRANCH  17  20
ATOM     20  O   UNL     1      -4.715   6.833  -3.854  1.00  0.00    -0.457 OA
BRANCH  20  21
ATOM     21  C   UNL     1      -3.509   7.233  -3.305  1.00  0.00     0.127 A 
ATOM     22  C   UNL     1      -2.371   7.211  -4.092  1.00  0.00     0.047 A 
ATOM     23  C   UNL     1      -3.472   7.645  -1.985  1.00  0.00     0.047 A 
ATOM     24  C   UNL     1      -1.156   7.614  -3.539  1.00  0.00     0.004 A 
ATOM     25  C   UNL     1      -2.256   8.048  -1.433  1.00  0.00     0.004 A 
ATOM     26  C   UNL     1      -1.098   8.033  -2.210  1.00  0.00     0.000 A 
ENDBRANCH  20  21
ENDBRANCH  17  20
ENDBRANCH   1  14
TORSDOF 7
ENDMDL
MODEL 5
REMARK VINA RESULT:    -6.199      2.837      6.122
REMARK INTER + INTRA:         -11.927
REMARK INTER:                  -9.248
REMARK INTRA:                  -2.679
REMARK UNBOUND:                -3.192
REMARK SMILES CC1(C)[C@H](C=C(Cl)Cl)[C@H]1C(=O)OCc1cccc(Oc2ccccc2)c1
REMARK SMILES IDX 13 1 12 2 10 3 11 4 9 5 4 6 2 7 1 8 3 9 5 10 7 11 6 12 8 13
REMARK SMILES IDX 14 14 26 15 15 16 18 17 16 18 17 19 19 20 20 21 21 22 25 23
REMARK SMILES IDX 22 24 24 25 23 26
REMARK H PARENT
REMARK Flexibility Score: inf
ROOT
ATOM      1  C   UNL     1      -5.333   2.552  -3.904  1.00  0.00     0.268 C 
ENDROOT
BRANCH   1   2
ATOM      2  O   UNL     1      -4.566   3.656  -3.440  1.00  0.00    -0.461 OA
BRANCH   2   3
ATOM      3  C   UNL     1      -5.003   4.240  -2.286  1.00  0.00     0.310 C 
ATOM      4  O   UNL     1      -6.141   4.206  -1.838  1.00  0.00    -0.252 OA
BRANCH   3   5
ATOM      5  C   UNL     1      -3.912   4.959  -1.583  1.00  0.00     0.113 C 
ATOM      6  C   UNL     1      -2.499   4.651  -1.963  1.00  0.00     0.035 C 
ATOM      7  C   UNL     1      -3.028   4.227  -0.624  1.00  0.00    -0.014 C 
ATOM      8  C   UNL     1      -2.501   4.935   0.578  1.00  0.00     0.012 C 
ATOM      9  C   UNL     1      -3.341   2.790  -0.372  1.00  0.00     0.012 C 
BRANCH   6  10
ATOM     10  C   UNL     1      -1.556   5.756  -2.067  1.00  0.00     0.011 C 
ATOM     11  Cl  UNL     1      -2.741   6.862  -4.218  1.00  0.00    -0.071 Cl
ATOM     12  C   UNL     1      -1.553   6.747  -2.971  1.00  0.00     0.103 C 
ATOM     13  Cl  UNL     1      -0.333   7.972  -2.922  1.00  0.00    -0.071 Cl
ENDBRANCH   6  10
ENDBRANCH   3   5
ENDBRANCH   2   3
ENDBRANCH   1   2
BRANCH   1  14
ATOM     14  C   UNL     1      -4.449   1.358  -4.044  1.00  0.00    -0.007 A 
ATOM     15  C   UNL     1      -3.074   1.482  -3.847  1.00  0.00     0.054 A 
ATOM     16  C   UNL     1      -4.999   0.119  -4.370  1.00  0.00     0.007 A 
ATOM     17  C   UNL     1      -2.249   0.365  -3.977  1.00  0.00     0.127 A 
ATOM     18  C   UNL     1      -4.173  -0.997  -4.500  1.00  0.00     0.004 A 
ATOM     19  C   UNL     1      -2.798  -0.874  -4.303  1.00  0.00     0.047 A 
BRANCH  17  20
ATOM     20  O   UNL     1      -0.906   0.485  -3.785  1.00  0.00    -0.457 OA
BRANCH  20  21
ATOM     21  C   UNL     1      -0.464   0.828  -2.518  1.00  0.00     0.127 A 
ATOM     22  C   UNL     1      -0.001   2.113  -2.291  1.00  0.00     0.047 A 
ATOM     23  C   UNL     1      -0.497  -0.120  -1.513  1.00  0.00     0.047 A 
ATOM     24  C   UNL     1       0.444   2.458  -1.016  1.00  0.00     0.004 A 
ATOM     25  C   UNL     1      -0.052   0.226  -0.237  1.00  0.00     0.004 A 
ATOM     26  C   UNL     1       0.418   1.516   0.011  1.00  0.00     0.000 A 
ENDBRANCH  20  21
ENDBRANCH  17  20
ENDBRANCH   1  14
TORSDOF 7
ENDMDL
