MODEL 1
REMARK VINA RESULT:    -6.186      0.000      0.000
REMARK INTER + INTRA:          -7.660
REMARK INTER:                  -7.271
REMARK INTRA:                  -0.389
REMARK UNBOUND:                -0.389
REMARK SMILES Clc1ccc(C(c2ccc(Cl)cc2)C(Cl)(Cl)Cl)cc1
REMARK SMILES IDX 6 1 14 2 15 3 16 4 17 5 5 6 4 7 18 8 3 9 19 10 2 11 1 12
REMARK SMILES IDX 7 13 8 14 13 15 9 16 12 17 10 18 11 19
REMARK H PARENT
REMARK Flexibility Score: inf
ROOT
ATOM      1  C   UNL     1       0.053   1.339  -1.361  1.00  0.00     0.101 C 
ENDROOT
BRANCH   1   2
ATOM      2  C   UNL     1       0.381   0.777   0.085  1.00  0.00     0.201 C 
ATOM      3  Cl  UNL     1      -0.673   1.423   1.385  1.00  0.00    -0.083 Cl
ATOM      4  Cl  UNL     1       2.079   1.231   0.534  1.00  0.00    -0.083 Cl
ATOM      5  Cl  UNL     1       0.316  -1.025   0.149  1.00  0.00    -0.083 Cl
ENDBRANCH   1   2
BRANCH   1   6
ATOM      6  C   UNL     1       0.144   2.820  -1.514  1.00  0.00    -0.036 A 
ATOM      7  C   UNL     1       1.156   3.378  -2.294  1.00  0.00     0.006 A 
ATOM      8  C   UNL     1      -0.781   3.646  -0.876  1.00  0.00     0.006 A 
ATOM      9  C   UNL     1       1.243   4.764  -2.437  1.00  0.00     0.021 A 
ATOM     10  C   UNL     1      -0.695   5.031  -1.019  1.00  0.00     0.021 A 
ATOM     11  C   UNL     1       0.316   5.589  -1.799  1.00  0.00     0.041 A 
ATOM     12  Cl  UNL     1       0.423   7.299  -1.975  1.00  0.00    -0.084 Cl
ENDBRANCH   1   6
BRANCH   1  13
ATOM     13  C   UNL     1      -1.190   0.739  -2.067  1.00  0.00    -0.036 A 
ATOM     14  C   UNL     1      -0.995  -0.309  -2.922  1.00  0.00     0.006 A 
ATOM     15  C   UNL     1      -2.409   1.293  -1.794  1.00  0.00     0.006 A 
ATOM     16  C   UNL     1      -2.114  -0.847  -3.558  1.00  0.00     0.021 A 
ATOM     17  C   UNL     1      -3.527   0.754  -2.431  1.00  0.00     0.021 A 
ATOM     18  C   UNL     1      -3.380  -0.316  -3.313  1.00  0.00     0.041 A 
ATOM     19  Cl  UNL     1      -4.760  -0.980  -4.098  1.00  0.00    -0.084 Cl
ENDBRANCH   1  13
TORSDOF 3
ENDMDL
MODEL 2
REMARK VINA RESULT:    -6.116      2.216      4.785
REMARK INTER + INTRA:          -7.578
REMARK INTER:                  -6.969
REMARK INTRA:                  -0.609
REMARK UNBOUND:                -0.389
REMARK SMILES Clc1ccc(C(c2ccc(Cl)cc2)C(Cl)(Cl)Cl)cc1
REMARK SMILES IDX 6 1 14 2 15 3 16 4 17 5 5 6 4 7 18 8 3 9 19 10 2 11 1 12
REMARK SMILES IDX 7 13 8 14 13 15 9 16 12 17 10 18 11 19
REMARK H PARENT
REMARK Flexibility Score: inf
ROOT
ATOM      1  C   UNL     1      -1.381   1.953  -1.304  1.00  0.00     0.101 C 
ENDROOT
BRANCH   1   2
ATOM      2  C   UNL     1      -1.807   1.069  -2.551  1.00  0.00     0.201 C 
ATOM      3  Cl  UNL     1      -1.180   1.660  -4.123  1.00  0.00    -0.083 Cl
ATOM      4  Cl  UNL     1      -3.616   1.065  -2.693  1.00  0.00    -0.083 Cl
ATOM      5  Cl  UNL     1      -1.322  -0.659  -2.361  1.00  0.00    -0.083 Cl
ENDBRANCH   1   2
BRANCH   1   6
ATOM      6  C   UNL     1      -1.821   3.377  -1.342  1.00  0.00    -0.036 A 
ATOM      7  C   UNL     1      -2.129   4.043  -0.156  1.00  0.00     0.006 A 
ATOM      8  C   UNL     1      -1.926   4.043  -2.564  1.00  0.00     0.006 A 
ATOM      9  C   UNL     1      -2.542   5.375  -0.192  1.00  0.00     0.021 A 
ATOM     10  C   UNL     1      -2.338   5.375  -2.599  1.00  0.00     0.021 A 
ATOM     11  C   UNL     1      -2.647   6.041  -1.413  1.00  0.00     0.041 A 
ATOM     12  Cl  UNL     1      -3.157   7.684  -1.457  1.00  0.00    -0.084 Cl
ENDBRANCH   1   6
BRANCH   1  13
ATOM     13  C   UNL     1       0.079   1.789  -0.812  1.00  0.00    -0.036 A 
ATOM     14  C   UNL     1       0.294   1.061   0.324  1.00  0.00     0.006 A 
ATOM     15  C   UNL     1       1.070   2.385  -1.543  1.00  0.00     0.006 A 
ATOM     16  C   UNL     1       1.608   0.916   0.767  1.00  0.00     0.021 A 
ATOM     17  C   UNL     1       2.384   2.240  -1.099  1.00  0.00     0.021 A 
ATOM     18  C   UNL     1       2.654   1.504   0.056  1.00  0.00     0.041 A 
ATOM     19  Cl  UNL     1       4.276   1.326   0.603  1.00  0.00    -0.084 Cl
ENDBRANCH   1  13
TORSDOF 3
ENDMDL
MODEL 3
REMARK VINA RESULT:    -6.100      0.588      1.628
REMARK INTER + INTRA:          -7.559
REMARK INTER:                  -6.966
REMARK INTRA:                  -0.593
REMARK UNBOUND:                -0.389
REMARK SMILES Clc1ccc(C(c2ccc(Cl)cc2)C(Cl)(Cl)Cl)cc1
REMARK SMILES IDX 6 1 14 2 15 3 16 4 17 5 5 6 4 7 18 8 3 9 19 10 2 11 1 12
REMARK SMILES IDX 7 13 8 14 13 15 9 16 12 17 10 18 11 19
REMARK H PARENT
REMARK Flexibility Score: inf
ROOT
ATOM      1  C   UNL     1      -0.140   1.464  -1.846  1.00  0.00     0.101 C 
ENDROOT
BRANCH   1   2
ATOM      2  C   UNL     1       0.275   0.908  -0.420  1.00  0.00     0.201 C 
ATOM      3  Cl  UNL     1      -0.691   1.567   0.939  1.00  0.00    -0.083 Cl
ATOM      4  Cl  UNL     1       2.001   1.356  -0.081  1.00  0.00    -0.083 Cl
ATOM      5  Cl  UNL     1       0.206  -0.893  -0.342  1.00  0.00    -0.083 Cl
ENDBRANCH   1   2
BRANCH   1   6
ATOM      6  C   UNL     1      -0.054   2.944  -2.013  1.00  0.00    -0.036 A 
ATOM      7  C   UNL     1      -0.558   3.787  -1.023  1.00  0.00     0.006 A 
ATOM      8  C   UNL     1       0.529   3.484  -3.159  1.00  0.00     0.006 A 
ATOM      9  C   UNL     1      -0.478   5.171  -1.179  1.00  0.00     0.021 A 
ATOM     10  C   UNL     1       0.609   4.868  -3.315  1.00  0.00     0.021 A 
ATOM     11  C   UNL     1       0.105   5.711  -2.325  1.00  0.00     0.041 A 
ATOM     12  Cl  UNL     1       0.203   7.419  -2.518  1.00  0.00    -0.084 Cl
ENDBRANCH   1   6
BRANCH   1  13
ATOM     13  C   UNL     1      -1.426   0.865  -2.470  1.00  0.00    -0.036 A 
ATOM     14  C   UNL     1      -2.631   1.287  -1.983  1.00  0.00     0.006 A 
ATOM     15  C   UNL     1      -1.281  -0.054  -3.472  1.00  0.00     0.006 A 
ATOM     16  C   UNL     1      -3.787   0.745  -2.544  1.00  0.00     0.021 A 
ATOM     17  C   UNL     1      -2.438  -0.596  -4.033  1.00  0.00     0.021 A 
ATOM     18  C   UNL     1      -3.691  -0.195  -3.569  1.00  0.00     0.041 A 
ATOM     19  Cl  UNL     1      -5.118  -0.864  -4.261  1.00  0.00    -0.084 Cl
ENDBRANCH   1  13
TORSDOF 3
ENDMDL
MODEL 4
REMARK VINA RESULT:    -6.029      3.520      5.517
REMARK INTER + INTRA:          -7.475
REMARK INTER:                  -6.869
REMARK INTRA:                  -0.606
REMARK UNBOUND:                -0.389
REMARK SMILES Clc1ccc(C(c2ccc(Cl)cc2)C(Cl)(Cl)Cl)cc1
REMARK SMILES IDX 6 1 14 2 15 3 16 4 17 5 5 6 4 7 18 8 3 9 19 10 2 11 1 12
REMARK SMILES IDX 7 13 8 14 13 15 9 16 12 17 10 18 11 19
REMARK H PARENT
REMARK Flexibility Score: inf
ROOT
ATOM      1  C   UNL     1      -2.257   4.681  -1.803  1.00  0.00     0.101 C 
ENDROOT
BRANCH   1   2
ATOM      2  C   UNL     1      -3.286   3.479  -1.910  1.00  0.00     0.201 C 
ATOM      3  Cl  UNL     1      -4.932   3.860  -1.310  1.00  0.00    -0.083 Cl
ATOM      4  Cl  UNL     1      -2.689   2.088  -0.908  1.00  0.00    -0.083 Cl
ATOM      5  Cl  UNL     1      -3.429   2.850  -3.595  1.00  0.00    -0.083 Cl
ENDBRANCH   1   2
BRANCH   1   6
ATOM      6  C   UNL     1      -2.825   6.040  -2.039  1.00  0.00    -0.036 A 
ATOM      7  C   UNL     1      -3.831   6.219  -2.988  1.00  0.00     0.006 A 
ATOM      8  C   UNL     1      -2.349   7.131  -1.311  1.00  0.00     0.006 A 
ATOM      9  C   UNL     1      -4.362   7.490  -3.209  1.00  0.00     0.021 A 
ATOM     10  C   UNL     1      -2.881   8.402  -1.532  1.00  0.00     0.021 A 
ATOM     11  C   UNL     1      -3.887   8.581  -2.481  1.00  0.00     0.041 A 
ATOM     12  Cl  UNL     1      -4.542  10.150  -2.754  1.00  0.00    -0.084 Cl
ENDBRANCH   1   6
BRANCH   1  13
ATOM     13  C   UNL     1      -0.886   4.477  -2.495  1.00  0.00    -0.036 A 
ATOM     14  C   UNL     1       0.121   3.910  -1.765  1.00  0.00     0.006 A 
ATOM     15  C   UNL     1      -0.761   4.876  -3.797  1.00  0.00     0.006 A 
ATOM     16  C   UNL     1       1.356   3.728  -2.388  1.00  0.00     0.021 A 
ATOM     17  C   UNL     1       0.474   4.694  -4.419  1.00  0.00     0.021 A 
ATOM     18  C   UNL     1       1.532   4.119  -3.715  1.00  0.00     0.041 A 
ATOM     19  Cl  UNL     1       3.056   3.895  -4.484  1.00  0.00    -0.084 Cl
ENDBRANCH   1  13
TORSDOF 3
ENDMDL
MODEL 5
REMARK VINA RESULT:    -5.983      3.590      5.711
REMARK INTER + INTRA:          -7.421
REMARK INTER:                  -7.061
REMARK INTRA:                  -0.361
REMARK UNBOUND:                -0.389
REMARK SMILES Clc1ccc(C(c2ccc(Cl)cc2)C(Cl)(Cl)Cl)cc1
REMARK SMILES IDX 6 1 14 2 15 3 16 4 17 5 5 6 4 7 18 8 3 9 19 10 2 11 1 12
REMARK SMILES IDX 7 13 8 14 13 15 9 16 12 17 10 18 11 19
REMARK H PARENT
REMARK Flexibility Score: inf
ROOT
ATOM      1  C   UNL     1      -4.517   3.869  -1.710  1.00  0.00     0.101 C 
ENDROOT
BRANCH   1   2
ATOM      2  C   UNL     1      -5.386   2.992  -2.706  1.00  0.00     0.201 C 
ATOM      3  Cl  UNL     1      -5.155   3.397  -4.438  1.00  0.00    -0.083 Cl
ATOM      4  Cl  UNL     1      -7.147   3.251  -2.354  1.00  0.00    -0.083 Cl
ATOM      5  Cl  UNL     1      -5.093   1.224  -2.494  1.00  0.00    -0.083 Cl
ENDBRANCH   1   2
BRANCH   1   6
ATOM      6  C   UNL     1      -4.440   5.323  -2.029  1.00  0.00    -0.036 A 
ATOM      7  C   UNL     1      -3.274   6.037  -1.752  1.00  0.00     0.006 A 
ATOM      8  C   UNL     1      -5.535   5.971  -2.602  1.00  0.00     0.006 A 
ATOM      9  C   UNL     1      -3.202   7.398  -2.049  1.00  0.00     0.021 A 
ATOM     10  C   UNL     1      -5.463   7.332  -2.899  1.00  0.00     0.021 A 
ATOM     11  C   UNL     1      -4.297   8.045  -2.623  1.00  0.00     0.041 A 
ATOM     12  Cl  UNL     1      -4.209   9.725  -2.989  1.00  0.00    -0.084 Cl
ENDBRANCH   1   6
BRANCH   1  13
ATOM     13  C   UNL     1      -3.151   3.275  -1.284  1.00  0.00    -0.036 A 
ATOM     14  C   UNL     1      -2.966   2.976   0.036  1.00  0.00     0.006 A 
ATOM     15  C   UNL     1      -2.207   3.085  -2.255  1.00  0.00     0.006 A 
ATOM     16  C   UNL     1      -1.735   2.444   0.419  1.00  0.00     0.021 A 
ATOM     17  C   UNL     1      -0.975   2.552  -1.872  1.00  0.00     0.021 A 
ATOM     18  C   UNL     1      -0.740   2.231  -0.535  1.00  0.00     0.041 A 
ATOM     19  Cl  UNL     1       0.780   1.574  -0.063  1.00  0.00    -0.084 Cl
ENDBRANCH   1  13
TORSDOF 3
ENDMDL
