MODEL 1
REMARK VINA RESULT:    -6.506      0.000      0.000
REMARK INTER + INTRA:          -8.252
REMARK INTER:                  -7.647
REMARK INTRA:                  -0.606
REMARK UNBOUND:                -0.606
REMARK SMILES Clc1ccc(C(c2ccc(Cl)cc2)C(Cl)(Cl)Cl)cc1
REMARK SMILES IDX 6 1 14 2 15 3 16 4 17 5 5 6 4 7 18 8 3 9 19 10 2 11 1 12
REMARK SMILES IDX 7 13 8 14 13 15 9 16 12 17 10 18 11 19
REMARK H PARENT
REMARK Flexibility Score: inf
ROOT
ATOM      1  C   UNL     1      -1.363   1.637  -1.521  1.00  0.00     0.101 C 
ENDROOT
BRANCH   1   2
ATOM      2  C   UNL     1      -1.692   0.671  -2.735  1.00  0.00     0.201 C 
ATOM      3  Cl  UNL     1      -0.992   1.189  -4.302  1.00  0.00    -0.083 Cl
ATOM      4  Cl  UNL     1      -3.489   0.603  -2.978  1.00  0.00    -0.083 Cl
ATOM      5  Cl  UNL     1      -1.171  -1.027  -2.416  1.00  0.00    -0.083 Cl
ENDBRANCH   1   2
BRANCH   1   6
ATOM      6  C   UNL     1      -1.897   3.025  -1.639  1.00  0.00    -0.036 A 
ATOM      7  C   UNL     1      -2.297   3.717  -0.496  1.00  0.00     0.006 A 
ATOM      8  C   UNL     1      -1.997   3.631  -2.892  1.00  0.00     0.006 A 
ATOM      9  C   UNL     1      -2.797   5.015  -0.606  1.00  0.00     0.021 A 
ATOM     10  C   UNL     1      -2.496   4.928  -3.002  1.00  0.00     0.021 A 
ATOM     11  C   UNL     1      -2.896   5.620  -1.859  1.00  0.00     0.041 A 
ATOM     12  Cl  UNL     1      -3.514   7.221  -1.995  1.00  0.00    -0.084 Cl
ENDBRANCH   1   6
BRANCH   1  13
ATOM     13  C   UNL     1       0.089   1.597  -0.984  1.00  0.00    -0.036 A 
ATOM     14  C   UNL     1       0.337   0.852   0.135  1.00  0.00     0.006 A 
ATOM     15  C   UNL     1       1.040   2.310  -1.658  1.00  0.00     0.006 A 
ATOM     16  C   UNL     1       1.644   0.818   0.619  1.00  0.00     0.021 A 
ATOM     17  C   UNL     1       2.348   2.276  -1.173  1.00  0.00     0.021 A 
ATOM     18  C   UNL     1       2.650   1.529  -0.035  1.00  0.00     0.041 A 
ATOM     19  Cl  UNL     1       4.263   1.487   0.564  1.00  0.00    -0.084 Cl
ENDBRANCH   1  13
TORSDOF 3
ENDMDL
MODEL 2
REMARK VINA RESULT:    -6.505      0.035      1.568
REMARK INTER + INTRA:          -8.251
REMARK INTER:                  -7.658
REMARK INTRA:                  -0.593
REMARK UNBOUND:                -0.606
REMARK SMILES Clc1ccc(C(c2ccc(Cl)cc2)C(Cl)(Cl)Cl)cc1
REMARK SMILES IDX 6 1 14 2 15 3 16 4 17 5 5 6 4 7 18 8 3 9 19 10 2 11 1 12
REMARK SMILES IDX 7 13 8 14 13 15 9 16 12 17 10 18 11 19
REMARK H PARENT
REMARK Flexibility Score: inf
ROOT
ATOM      1  C   UNL     1      -1.368   1.644  -1.504  1.00  0.00     0.101 C 
ENDROOT
BRANCH   1   2
ATOM      2  C   UNL     1      -1.701   0.668  -2.709  1.00  0.00     0.201 C 
ATOM      3  Cl  UNL     1      -1.045   1.199  -4.291  1.00  0.00    -0.083 Cl
ATOM      4  Cl  UNL     1      -3.501   0.562  -2.915  1.00  0.00    -0.083 Cl
ATOM      5  Cl  UNL     1      -1.137  -1.018  -2.399  1.00  0.00    -0.083 Cl
ENDBRANCH   1   2
BRANCH   1   6
ATOM      6  C   UNL     1      -1.909   3.028  -1.625  1.00  0.00    -0.036 A 
ATOM      7  C   UNL     1      -2.019   3.626  -2.880  1.00  0.00     0.006 A 
ATOM      8  C   UNL     1      -2.305   3.725  -0.483  1.00  0.00     0.006 A 
ATOM      9  C   UNL     1      -2.525   4.922  -2.994  1.00  0.00     0.021 A 
ATOM     10  C   UNL     1      -2.811   5.020  -0.597  1.00  0.00     0.021 A 
ATOM     11  C   UNL     1      -2.921   5.618  -1.851  1.00  0.00     0.041 A 
ATOM     12  Cl  UNL     1      -3.544   7.217  -1.991  1.00  0.00    -0.084 Cl
ENDBRANCH   1   6
BRANCH   1  13
ATOM     13  C   UNL     1       0.090   1.614  -0.978  1.00  0.00    -0.036 A 
ATOM     14  C   UNL     1       1.029   2.342  -1.653  1.00  0.00     0.006 A 
ATOM     15  C   UNL     1       0.353   0.860   0.131  1.00  0.00     0.006 A 
ATOM     16  C   UNL     1       2.340   2.314  -1.180  1.00  0.00     0.021 A 
ATOM     17  C   UNL     1       1.666   0.831   0.604  1.00  0.00     0.021 A 
ATOM     18  C   UNL     1       2.659   1.559  -0.052  1.00  0.00     0.041 A 
ATOM     19  Cl  UNL     1       4.278   1.523   0.532  1.00  0.00    -0.084 Cl
ENDBRANCH   1  13
TORSDOF 3
ENDMDL
MODEL 3
REMARK VINA RESULT:    -6.502      0.096      1.584
REMARK INTER + INTRA:          -8.248
REMARK INTER:                  -7.623
REMARK INTRA:                  -0.625
REMARK UNBOUND:                -0.606
REMARK SMILES Clc1ccc(C(c2ccc(Cl)cc2)C(Cl)(Cl)Cl)cc1
REMARK SMILES IDX 6 1 14 2 15 3 16 4 17 5 5 6 4 7 18 8 3 9 19 10 2 11 1 12
REMARK SMILES IDX 7 13 8 14 13 15 9 16 12 17 10 18 11 19
REMARK H PARENT
REMARK Flexibility Score: inf
ROOT
ATOM      1  C   UNL     1      -1.344   1.652  -1.552  1.00  0.00     0.101 C 
ENDROOT
BRANCH   1   2
ATOM      2  C   UNL     1      -1.672   0.686  -2.766  1.00  0.00     0.201 C 
ATOM      3  Cl  UNL     1      -3.415   0.579  -3.173  1.00  0.00    -0.083 Cl
ATOM      4  Cl  UNL     1      -1.142  -0.999  -2.352  1.00  0.00    -0.083 Cl
ATOM      5  Cl  UNL     1      -0.768   1.136  -4.261  1.00  0.00    -0.083 Cl
ENDBRANCH   1   2
BRANCH   1   6
ATOM      6  C   UNL     1      -1.897   3.033  -1.658  1.00  0.00    -0.036 A 
ATOM      7  C   UNL     1      -2.023   3.639  -2.907  1.00  0.00     0.006 A 
ATOM      8  C   UNL     1      -2.286   3.719  -0.507  1.00  0.00     0.006 A 
ATOM      9  C   UNL     1      -2.539   4.932  -3.007  1.00  0.00     0.021 A 
ATOM     10  C   UNL     1      -2.803   5.011  -0.606  1.00  0.00     0.021 A 
ATOM     11  C   UNL     1      -2.929   5.617  -1.856  1.00  0.00     0.041 A 
ATOM     12  Cl  UNL     1      -3.566   7.212  -1.978  1.00  0.00    -0.084 Cl
ENDBRANCH   1   6
BRANCH   1  13
ATOM     13  C   UNL     1       0.115   1.629  -1.030  1.00  0.00    -0.036 A 
ATOM     14  C   UNL     1       0.380   0.900   0.096  1.00  0.00     0.006 A 
ATOM     15  C   UNL     1       1.054   2.340  -1.724  1.00  0.00     0.006 A 
ATOM     16  C   UNL     1       1.693   0.881   0.566  1.00  0.00     0.021 A 
ATOM     17  C   UNL     1       2.367   2.321  -1.252  1.00  0.00     0.021 A 
ATOM     18  C   UNL     1       2.686   1.591  -0.108  1.00  0.00     0.041 A 
ATOM     19  Cl  UNL     1       4.306   1.568   0.473  1.00  0.00    -0.084 Cl
ENDBRANCH   1  13
TORSDOF 3
ENDMDL
MODEL 4
REMARK VINA RESULT:    -6.440      2.333      4.804
REMARK INTER + INTRA:          -8.176
REMARK INTER:                  -7.595
REMARK INTRA:                  -0.580
REMARK UNBOUND:                -0.606
REMARK SMILES Clc1ccc(C(c2ccc(Cl)cc2)C(Cl)(Cl)Cl)cc1
REMARK SMILES IDX 6 1 14 2 15 3 16 4 17 5 5 6 4 7 18 8 3 9 19 10 2 11 1 12
REMARK SMILES IDX 7 13 8 14 13 15 9 16 12 17 10 18 11 19
REMARK H PARENT
REMARK Flexibility Score: inf
ROOT
ATOM      1  C   UNL     1      -0.144   1.464  -1.723  1.00  0.00     0.101 C 
ENDROOT
BRANCH   1   2
ATOM      2  C   UNL     1       0.228   0.916  -0.282  1.00  0.00     0.201 C 
ATOM      3  Cl  UNL     1      -0.830   1.520   1.034  1.00  0.00    -0.083 Cl
ATOM      4  Cl  UNL     1       1.914   1.436   0.141  1.00  0.00    -0.083 Cl
ATOM      5  Cl  UNL     1       0.236  -0.888  -0.219  1.00  0.00    -0.083 Cl
ENDBRANCH   1   2
BRANCH   1   6
ATOM      6  C   UNL     1      -0.075   2.945  -1.888  1.00  0.00    -0.036 A 
ATOM      7  C   UNL     1       0.526   3.493  -3.020  1.00  0.00     0.006 A 
ATOM      8  C   UNL     1      -0.610   3.782  -0.908  1.00  0.00     0.006 A 
ATOM      9  C   UNL     1       0.592   4.878  -3.174  1.00  0.00     0.021 A 
ATOM     10  C   UNL     1      -0.545   5.166  -1.062  1.00  0.00     0.021 A 
ATOM     11  C   UNL     1       0.056   5.714  -2.195  1.00  0.00     0.041 A 
ATOM     12  Cl  UNL     1       0.137   7.423  -2.384  1.00  0.00    -0.084 Cl
ENDBRANCH   1   6
BRANCH   1  13
ATOM     13  C   UNL     1      -1.397   0.844  -2.392  1.00  0.00    -0.036 A 
ATOM     14  C   UNL     1      -2.622   1.328  -2.029  1.00  0.00     0.006 A 
ATOM     15  C   UNL     1      -1.205  -0.153  -3.308  1.00  0.00     0.006 A 
ATOM     16  C   UNL     1      -3.749   0.769  -2.631  1.00  0.00     0.021 A 
ATOM     17  C   UNL     1      -2.332  -0.713  -3.909  1.00  0.00     0.021 A 
ATOM     18  C   UNL     1      -3.604  -0.252  -3.571  1.00  0.00     0.041 A 
ATOM     19  Cl  UNL     1      -4.995  -0.943  -4.313  1.00  0.00    -0.084 Cl
ENDBRANCH   1  13
TORSDOF 3
ENDMDL
MODEL 5
REMARK VINA RESULT:    -6.091      1.156      5.372
REMARK INTER + INTRA:          -7.764
REMARK INTER:                  -7.128
REMARK INTRA:                  -0.636
REMARK UNBOUND:                -0.606
REMARK SMILES Clc1ccc(C(c2ccc(Cl)cc2)C(Cl)(Cl)Cl)cc1
REMARK SMILES IDX 6 1 14 2 15 3 16 4 17 5 5 6 4 7 18 8 3 9 19 10 2 11 1 12
REMARK SMILES IDX 7 13 8 14 13 15 9 16 12 17 10 18 11 19
REMARK H PARENT
REMARK Flexibility Score: inf
ROOT
ATOM      1  C   UNL     1      -1.511   2.644  -2.475  1.00  0.00     0.101 C 
ENDROOT
BRANCH   1   2
ATOM      2  C   UNL     1      -2.673   1.585  -2.689  1.00  0.00     0.201 C 
ATOM      3  Cl  UNL     1      -2.134  -0.124  -2.628  1.00  0.00    -0.083 Cl
ATOM      4  Cl  UNL     1      -3.412   1.828  -4.328  1.00  0.00    -0.083 Cl
ATOM      5  Cl  UNL     1      -4.017   1.797  -1.503  1.00  0.00    -0.083 Cl
ENDBRANCH   1   2
BRANCH   1   6
ATOM      6  C   UNL     1      -0.418   2.225  -1.550  1.00  0.00    -0.036 A 
ATOM      7  C   UNL     1      -0.726   1.562  -0.362  1.00  0.00     0.006 A 
ATOM      8  C   UNL     1       0.912   2.497  -1.872  1.00  0.00     0.006 A 
ATOM      9  C   UNL     1       0.296   1.172   0.504  1.00  0.00     0.021 A 
ATOM     10  C   UNL     1       1.933   2.106  -1.007  1.00  0.00     0.021 A 
ATOM     11  C   UNL     1       1.625   1.444   0.181  1.00  0.00     0.041 A 
ATOM     12  Cl  UNL     1       2.886   0.962   1.249  1.00  0.00    -0.084 Cl
ENDBRANCH   1   6
BRANCH   1  13
ATOM     13  C   UNL     1      -1.951   4.113  -2.256  1.00  0.00    -0.036 A 
ATOM     14  C   UNL     1      -2.076   4.559  -0.970  1.00  0.00     0.006 A 
ATOM     15  C   UNL     1      -2.191   4.879  -3.362  1.00  0.00     0.006 A 
ATOM     16  C   UNL     1      -2.473   5.881  -0.774  1.00  0.00     0.021 A 
ATOM     17  C   UNL     1      -2.590   6.202  -3.166  1.00  0.00     0.021 A 
ATOM     18  C   UNL     1      -2.730   6.703  -1.872  1.00  0.00     0.041 A 
ATOM     19  Cl  UNL     1      -3.222   8.335  -1.630  1.00  0.00    -0.084 Cl
ENDBRANCH   1  13
TORSDOF 3
ENDMDL
