MODEL 1
REMARK VINA RESULT:    -6.625      0.000      0.000
REMARK INTER + INTRA:         -11.676
REMARK INTER:                  -9.723
REMARK INTRA:                  -1.953
REMARK UNBOUND:                -1.953
REMARK SMILES CC1(C)C(C=C(Br)Br)C1C(=O)OC(C#N)c1cccc(Oc2ccccc2)c1
REMARK SMILES IDX 13 1 12 2 10 3 11 4 9 5 4 6 2 7 1 8 3 9 5 10 7 11 6 12 8 13
REMARK SMILES IDX 16 14 28 15 17 16 20 17 18 18 19 19 21 20 22 21 23 22 27 23
REMARK SMILES IDX 24 24 26 25 25 26 14 27 15 28
REMARK H PARENT
REMARK Flexibility Score: inf
ROOT
ATOM      1  C   UNL     1       0.652   2.928  -3.884  1.00  0.00     0.309 C
ENDROOT
BRANCH   1   2
ATOM      2  O   UNL     1       0.150   1.858  -3.072  1.00  0.00    -0.442 OA
BRANCH   2   3
ATOM      3  C   UNL     1      -0.823   1.100  -3.645  1.00  0.00     0.311 C
ATOM      4  O   UNL     1      -0.764  -0.089  -3.923  1.00  0.00    -0.252 OA
BRANCH   3   5
ATOM      5  C   UNL     1      -2.043   1.904  -3.921  1.00  0.00     0.113 C
ATOM      6  C   UNL     1      -2.862   2.371  -2.761  1.00  0.00     0.035 C
ATOM      7  C   UNL     1      -3.396   1.315  -3.683  1.00  0.00    -0.014 C
ATOM      8  C   UNL     1      -3.509  -0.071  -3.142  1.00  0.00     0.012 C
ATOM      9  C   UNL     1      -4.467   1.661  -4.663  1.00  0.00     0.012 C
BRANCH   6  10
ATOM     10  C   UNL     1      -2.420   2.026  -1.418  1.00  0.00     0.001 C
ATOM     11  Br  UNL     1      -2.913   4.612  -0.346  1.00  0.00    -0.043 Br
ATOM     12  C   UNL     1      -2.379   2.818  -0.333  1.00  0.00     0.057 C
ATOM     13  Br  UNL     1      -1.770   2.167   1.317  1.00  0.00    -0.043 Br
ENDBRANCH   6  10
ENDBRANCH   3   5
ENDBRANCH   2   3
ENDBRANCH   1   2
BRANCH   1  14
ATOM     14  C   UNL     1       0.352   4.238  -3.239  1.00  0.00     0.011 A
ATOM     15  C   UNL     1      -0.404   5.194  -3.919  1.00  0.00     0.055 A
ATOM     16  C   UNL     1       0.827   4.509  -1.956  1.00  0.00     0.009 A
ATOM     17  C   UNL     1      -0.684   6.419  -3.315  1.00  0.00     0.127 A
ATOM     18  C   UNL     1       0.546   5.735  -1.352  1.00  0.00     0.004 A
ATOM     19  C   UNL     1      -0.208   6.690  -2.032  1.00  0.00     0.047 A
BRANCH  17  20
ATOM     20  O   UNL     1      -1.421   7.353  -3.978  1.00  0.00    -0.457 OA
BRANCH  20  21
ATOM     21  C   UNL     1      -2.720   7.569  -3.549  1.00  0.00     0.127 A
ATOM     22  C   UNL     1      -3.073   8.818  -3.073  1.00  0.00     0.047 A
ATOM     23  C   UNL     1      -3.632   6.530  -3.610  1.00  0.00     0.047 A
ATOM     24  C   UNL     1      -4.382   9.037  -2.641  1.00  0.00     0.004 A
ATOM     25  C   UNL     1      -4.939   6.748  -3.178  1.00  0.00     0.004 A
ATOM     26  C   UNL     1      -5.316   8.001  -2.694  1.00  0.00     0.000 A
ENDBRANCH  20  21
ENDBRANCH  17  20
ENDBRANCH   1  14
BRANCH   1  27
ATOM     27  C   UNL     1       2.096   2.728  -4.119  1.00  0.00     0.113 C
ATOM     28  N   UNL     1       3.232   2.570  -4.294  1.00  0.00    -0.194 NA
ENDBRANCH   1  27
TORSDOF 8
ENDMDL
MODEL 2
REMARK VINA RESULT:    -6.444      3.001      4.819
REMARK INTER + INTRA:         -11.411
REMARK INTER:                 -10.139
REMARK INTRA:                  -1.271
REMARK UNBOUND:                -1.953
REMARK SMILES CC1(C)C(C=C(Br)Br)C1C(=O)OC(C#N)c1cccc(Oc2ccccc2)c1
REMARK SMILES IDX 13 1 12 2 10 3 11 4 9 5 4 6 2 7 1 8 3 9 5 10 7 11 6 12 8 13
REMARK SMILES IDX 16 14 28 15 17 16 20 17 18 18 19 19 21 20 22 21 23 22 27 23
REMARK SMILES IDX 24 24 26 25 25 26 14 27 15 28
REMARK H PARENT
REMARK Flexibility Score: inf
ROOT
ATOM      1  C   UNL     1      -4.705   1.422  -2.893  1.00  0.00     0.309 C
ENDROOT
BRANCH   1   2
ATOM      2  O   UNL     1      -3.381   1.671  -3.384  1.00  0.00    -0.442 OA
BRANCH   2   3
ATOM      3  C   UNL     1      -2.422   1.801  -2.429  1.00  0.00     0.311 C
ATOM      4  O   UNL     1      -1.827   0.901  -1.853  1.00  0.00    -0.252 OA
BRANCH   3   5
ATOM      5  C   UNL     1      -2.146   3.231  -2.130  1.00  0.00     0.113 C
ATOM      6  C   UNL     1      -1.126   3.553  -1.086  1.00  0.00     0.035 C
ATOM      7  C   UNL     1      -2.579   3.819  -0.826  1.00  0.00    -0.014 C
ATOM      8  C   UNL     1      -3.264   2.954   0.179  1.00  0.00     0.012 C
ATOM      9  C   UNL     1      -3.091   5.221  -0.852  1.00  0.00     0.012 C
BRANCH   6  10
ATOM     10  C   UNL     1      -0.446   2.453  -0.420  1.00  0.00     0.001 C
ATOM     11  Br  UNL     1       1.996   2.808  -1.832  1.00  0.00    -0.043 Br
ATOM     12  C   UNL     1       0.814   2.025  -0.610  1.00  0.00     0.057 C
ATOM     13  Br  UNL     1       1.500   0.575   0.362  1.00  0.00    -0.043 Br
ENDBRANCH   6  10
ENDBRANCH   3   5
ENDBRANCH   2   3
ENDBRANCH   1   2
BRANCH   1  14
ATOM     14  C   UNL     1      -5.479   2.695  -2.851  1.00  0.00     0.011 A
ATOM     15  C   UNL     1      -5.078   3.783  -3.628  1.00  0.00     0.055 A
ATOM     16  C   UNL     1      -6.606   2.799  -2.035  1.00  0.00     0.009 A
ATOM     17  C   UNL     1      -5.803   4.973  -3.588  1.00  0.00     0.127 A
ATOM     18  C   UNL     1      -7.330   3.991  -1.996  1.00  0.00     0.004 A
ATOM     19  C   UNL     1      -6.928   5.078  -2.772  1.00  0.00     0.047 A
BRANCH  17  20
ATOM     20  O   UNL     1      -5.411   6.034  -4.346  1.00  0.00    -0.457 OA
BRANCH  20  21
ATOM     21  C   UNL     1      -4.368   6.813  -3.872  1.00  0.00     0.127 A
ATOM     22  C   UNL     1      -4.637   7.823  -2.968  1.00  0.00     0.047 A
ATOM     23  C   UNL     1      -3.082   6.558  -4.316  1.00  0.00     0.047 A
ATOM     24  C   UNL     1      -3.587   8.608  -2.491  1.00  0.00     0.004 A
ATOM     25  C   UNL     1      -2.032   7.342  -3.840  1.00  0.00     0.004 A
ATOM     26  C   UNL     1      -2.283   8.366  -2.927  1.00  0.00     0.000 A
ENDBRANCH  20  21
ENDBRANCH  17  20
ENDBRANCH   1  14
BRANCH   1  27
ATOM     27  C   UNL     1      -5.351   0.392  -3.731  1.00  0.00     0.113 C
ATOM     28  N   UNL     1      -5.868  -0.417  -4.383  1.00  0.00    -0.194 NA
ENDBRANCH   1  27
TORSDOF 8
ENDMDL
MODEL 3
REMARK VINA RESULT:    -6.401      2.365      6.019
REMARK INTER + INTRA:         -11.348
REMARK INTER:                 -10.885
REMARK INTRA:                  -0.463
REMARK UNBOUND:                -1.953
REMARK SMILES CC1(C)C(C=C(Br)Br)C1C(=O)OC(C#N)c1cccc(Oc2ccccc2)c1
REMARK SMILES IDX 13 1 12 2 10 3 11 4 9 5 4 6 2 7 1 8 3 9 5 10 7 11 6 12 8 13
REMARK SMILES IDX 16 14 28 15 17 16 20 17 18 18 19 19 21 20 22 21 23 22 27 23
REMARK SMILES IDX 24 24 26 25 25 26 14 27 15 28
REMARK H PARENT
REMARK Flexibility Score: inf
ROOT
ATOM      1  C   UNL     1       0.686   3.475  -2.234  1.00  0.00     0.309 C
ENDROOT
BRANCH   1   2
ATOM      2  O   UNL     1      -0.486   4.083  -2.794  1.00  0.00    -0.442 OA
BRANCH   2   3
ATOM      3  C   UNL     1      -1.328   4.659  -1.896  1.00  0.00     0.311 C
ATOM      4  O   UNL     1      -2.312   4.151  -1.376  1.00  0.00    -0.252 OA
BRANCH   3   5
ATOM      5  C   UNL     1      -0.917   6.053  -1.584  1.00  0.00     0.113 C
ATOM      6  C   UNL     1      -1.953   7.128  -1.641  1.00  0.00     0.035 C
ATOM      7  C   UNL     1      -0.863   7.078  -2.671  1.00  0.00    -0.014 C
ATOM      8  C   UNL     1      -1.253   6.696  -4.061  1.00  0.00     0.012 C
ATOM      9  C   UNL     1       0.253   8.067  -2.616  1.00  0.00     0.012 C
BRANCH   6  10
ATOM     10  C   UNL     1      -3.317   6.757  -1.989  1.00  0.00     0.001 C
ATOM     11  Br  UNL     1      -4.051   9.368  -2.843  1.00  0.00    -0.043 Br
ATOM     12  C   UNL     1      -4.286   7.545  -2.485  1.00  0.00     0.057 C
ATOM     13  Br  UNL     1      -5.989   6.860  -2.868  1.00  0.00    -0.043 Br
ENDBRANCH   6  10
ENDBRANCH   3   5
ENDBRANCH   2   3
ENDBRANCH   1   2
BRANCH   1  14
ATOM     14  C   UNL     1       0.368   2.098  -1.761  1.00  0.00     0.011 A
ATOM     15  C   UNL     1      -0.386   1.241  -2.564  1.00  0.00     0.055 A
ATOM     16  C   UNL     1       0.825   1.665  -0.517  1.00  0.00     0.009 A
ATOM     17  C   UNL     1      -0.683  -0.048  -2.122  1.00  0.00     0.127 A
ATOM     18  C   UNL     1       0.527   0.376  -0.075  1.00  0.00     0.004 A
ATOM     19  C   UNL     1      -0.227  -0.481  -0.877  1.00  0.00     0.047 A
BRANCH  17  20
ATOM     20  O   UNL     1      -1.419  -0.884  -2.904  1.00  0.00    -0.457 OA
BRANCH  20  21
ATOM     21  C   UNL     1      -2.712  -0.499  -3.219  1.00  0.00     0.127 A
ATOM     22  C   UNL     1      -3.360   0.410  -2.404  1.00  0.00     0.047 A
ATOM     23  C   UNL     1      -3.321  -1.035  -4.339  1.00  0.00     0.047 A
ATOM     24  C   UNL     1      -4.663   0.798  -2.720  1.00  0.00     0.004 A
ATOM     25  C   UNL     1      -4.623  -0.648  -4.655  1.00  0.00     0.004 A
ATOM     26  C   UNL     1      -5.294   0.269  -3.846  1.00  0.00     0.000 A
ENDBRANCH  20  21
ENDBRANCH  17  20
ENDBRANCH   1  14
BRANCH   1  27
ATOM     27  C   UNL     1       1.773   3.496  -3.233  1.00  0.00     0.113 C
ATOM     28  N   UNL     1       2.633   3.505  -4.013  1.00  0.00    -0.194 NA
ENDBRANCH   1  27
TORSDOF 8
ENDMDL
MODEL 4
REMARK VINA RESULT:    -6.356      2.369      5.646
REMARK INTER + INTRA:         -11.281
REMARK INTER:                 -10.596
REMARK INTRA:                  -0.685
REMARK UNBOUND:                -1.953
REMARK SMILES CC1(C)C(C=C(Br)Br)C1C(=O)OC(C#N)c1cccc(Oc2ccccc2)c1
REMARK SMILES IDX 13 1 12 2 10 3 11 4 9 5 4 6 2 7 1 8 3 9 5 10 7 11 6 12 8 13
REMARK SMILES IDX 16 14 28 15 17 16 20 17 18 18 19 19 21 20 22 21 23 22 27 23
REMARK SMILES IDX 24 24 26 25 25 26 14 27 15 28
REMARK H PARENT
REMARK Flexibility Score: inf
ROOT
ATOM      1  C   UNL     1       1.187   3.488  -2.353  1.00  0.00     0.309 C
ENDROOT
BRANCH   1   2
ATOM      2  O   UNL     1       0.090   4.391  -2.554  1.00  0.00    -0.442 OA
BRANCH   2   3
ATOM      3  C   UNL     1      -0.595   4.732  -1.430  1.00  0.00     0.311 C
ATOM      4  O   UNL     1      -0.238   5.508  -0.555  1.00  0.00    -0.252 OA
BRANCH   3   5
ATOM      5  C   UNL     1      -1.902   4.028  -1.358  1.00  0.00     0.113 C
ATOM      6  C   UNL     1      -3.148   4.820  -1.592  1.00  0.00     0.035 C
ATOM      7  C   UNL     1      -2.835   4.297  -0.222  1.00  0.00    -0.014 C
ATOM      8  C   UNL     1      -2.454   5.295   0.821  1.00  0.00     0.012 C
ATOM      9  C   UNL     1      -3.598   3.133   0.318  1.00  0.00     0.012 C
BRANCH   6  10
ATOM     10  C   UNL     1      -3.020   6.239  -1.889  1.00  0.00     0.001 C
ATOM     11  Br  UNL     1      -5.592   6.454  -3.080  1.00  0.00    -0.043 Br
ATOM     12  C   UNL     1      -3.917   7.042  -2.486  1.00  0.00     0.057 C
ATOM     13  Br  UNL     1      -3.550   8.858  -2.774  1.00  0.00    -0.043 Br
ENDBRANCH   6  10
ENDBRANCH   3   5
ENDBRANCH   2   3
ENDBRANCH   1   2
BRANCH   1  14
ATOM     14  C   UNL     1       0.682   2.179  -1.851  1.00  0.00     0.011 A
ATOM     15  C   UNL     1      -0.077   1.357  -2.685  1.00  0.00     0.055 A
ATOM     16  C   UNL     1       0.969   1.775  -0.547  1.00  0.00     0.009 A
ATOM     17  C   UNL     1      -0.548   0.132  -2.215  1.00  0.00     0.127 A
ATOM     18  C   UNL     1       0.497   0.549  -0.078  1.00  0.00     0.004 A
ATOM     19  C   UNL     1      -0.262  -0.272  -0.911  1.00  0.00     0.047 A
BRANCH  17  20
ATOM     20  O   UNL     1      -1.289  -0.671  -3.027  1.00  0.00    -0.457 OA
BRANCH  20  21
ATOM     21  C   UNL     1      -2.610  -0.316  -3.251  1.00  0.00     0.127 A
ATOM     22  C   UNL     1      -3.201   0.629  -2.433  1.00  0.00     0.047 A
ATOM     23  C   UNL     1      -3.303  -0.918  -4.286  1.00  0.00     0.047 A
ATOM     24  C   UNL     1      -4.531   0.986  -2.657  1.00  0.00     0.004 A
ATOM     25  C   UNL     1      -4.632  -0.561  -4.510  1.00  0.00     0.004 A
ATOM     26  C   UNL     1      -5.247   0.391  -3.697  1.00  0.00     0.000 A
ENDBRANCH  20  21
ENDBRANCH  17  20
ENDBRANCH   1  14
BRANCH   1  27
ATOM     27  C   UNL     1       1.949   3.359  -3.611  1.00  0.00     0.113 C
ATOM     28  N   UNL     1       2.558   3.256  -4.594  1.00  0.00    -0.194 NA
ENDBRANCH   1  27
TORSDOF 8
ENDMDL
MODEL 5
REMARK VINA RESULT:    -6.319      1.966      5.172
REMARK INTER + INTRA:         -11.227
REMARK INTER:                  -9.367
REMARK INTRA:                  -1.860
REMARK UNBOUND:                -1.953
REMARK SMILES CC1(C)C(C=C(Br)Br)C1C(=O)OC(C#N)c1cccc(Oc2ccccc2)c1
REMARK SMILES IDX 13 1 12 2 10 3 11 4 9 5 4 6 2 7 1 8 3 9 5 10 7 11 6 12 8 13
REMARK SMILES IDX 16 14 28 15 17 16 20 17 18 18 19 19 21 20 22 21 23 22 27 23
REMARK SMILES IDX 24 24 26 25 25 26 14 27 15 28
REMARK H PARENT
REMARK Flexibility Score: inf
ROOT
ATOM      1  C   UNL     1       1.663   3.798  -2.678  1.00  0.00     0.309 C
ENDROOT
BRANCH   1   2
ATOM      2  O   UNL     1       0.784   4.862  -3.068  1.00  0.00    -0.442 OA
BRANCH   2   3
ATOM      3  C   UNL     1       0.426   5.716  -2.072  1.00  0.00     0.311 C
ATOM      4  O   UNL     1       0.874   5.749  -0.934  1.00  0.00    -0.252 OA
BRANCH   3   5
ATOM      5  C   UNL     1      -0.626   6.663  -2.522  1.00  0.00     0.113 C
ATOM      6  C   UNL     1      -2.057   6.268  -2.350  1.00  0.00     0.035 C
ATOM      7  C   UNL     1      -1.457   6.343  -3.723  1.00  0.00    -0.014 C
ATOM      8  C   UNL     1      -1.239   5.055  -4.445  1.00  0.00     0.012 C
ATOM      9  C   UNL     1      -1.811   7.478  -4.624  1.00  0.00     0.012 C
BRANCH   6  10
ATOM     10  C   UNL     1      -2.351   4.979  -1.741  1.00  0.00     0.001 C
ATOM     11  Br  UNL     1      -5.055   4.926  -2.616  1.00  0.00    -0.043 Br
ATOM     12  C   UNL     1      -3.512   4.304  -1.757  1.00  0.00     0.057 C
ATOM     13  Br  UNL     1      -3.678   2.643  -0.902  1.00  0.00    -0.043 Br
ENDBRANCH   6  10
ENDBRANCH   3   5
ENDBRANCH   2   3
ENDBRANCH   1   2
BRANCH   1  14
ATOM     14  C   UNL     1       0.869   2.611  -2.256  1.00  0.00     0.011 A
ATOM     15  C   UNL     1       0.144   1.883  -3.201  1.00  0.00     0.055 A
ATOM     16  C   UNL     1       0.850   2.224  -0.916  1.00  0.00     0.009 A
ATOM     17  C   UNL     1      -0.599   0.772  -2.806  1.00  0.00     0.127 A
ATOM     18  C   UNL     1       0.107   1.112  -0.521  1.00  0.00     0.004 A
ATOM     19  C   UNL     1      -0.618   0.386  -1.465  1.00  0.00     0.047 A
BRANCH  17  20
ATOM     20  O   UNL     1      -1.307   0.062  -3.727  1.00  0.00    -0.457 OA
BRANCH  20  21
ATOM     21  C   UNL     1      -2.655   0.349  -3.863  1.00  0.00     0.127 A
ATOM     22  C   UNL     1      -3.035   1.501  -4.526  1.00  0.00     0.047 A
ATOM     23  C   UNL     1      -3.587  -0.524  -3.330  1.00  0.00     0.047 A
ATOM     24  C   UNL     1      -4.393   1.791  -4.663  1.00  0.00     0.004 A
ATOM     25  C   UNL     1      -4.944  -0.234  -3.466  1.00  0.00     0.004 A
ATOM     26  C   UNL     1      -5.348   0.923  -4.133  1.00  0.00     0.000 A
ENDBRANCH  20  21
ENDBRANCH  17  20
ENDBRANCH   1  14
BRANCH   1  27
ATOM     27  C   UNL     1       2.589   3.497  -3.789  1.00  0.00     0.113 C
ATOM     28  N   UNL     1       3.325   3.265  -4.656  1.00  0.00    -0.194 NA
ENDBRANCH   1  27
TORSDOF 8
ENDMDL
