MODEL 1
REMARK VINA RESULT:    -6.912      0.000      0.000
REMARK INTER + INTRA:         -11.391
REMARK INTER:                 -10.144
REMARK INTRA:                  -1.247
REMARK UNBOUND:                -1.247
REMARK SMILES CC1(C)C(C=C(Br)Br)C1C(=O)OC(C#N)c1cccc(Oc2ccccc2)c1
REMARK SMILES IDX 13 1 12 2 10 3 11 4 9 5 4 6 2 7 1 8 3 9 5 10 7 11 6 12 8 13
REMARK SMILES IDX 16 14 28 15 17 16 20 17 18 18 19 19 21 20 22 21 23 22 27 23
REMARK SMILES IDX 24 24 26 25 25 26 14 27 15 28
REMARK H PARENT
REMARK Flexibility Score: inf
ROOT
ATOM      1  C   UNL     1      -4.708   1.410  -2.891  1.00  0.00     0.309 C
ENDROOT
BRANCH   1   2
ATOM      2  O   UNL     1      -3.385   1.661  -3.384  1.00  0.00    -0.442 OA
BRANCH   2   3
ATOM      3  C   UNL     1      -2.426   1.799  -2.429  1.00  0.00     0.311 C
ATOM      4  O   UNL     1      -1.830   0.903  -1.848  1.00  0.00    -0.252 OA
BRANCH   3   5
ATOM      5  C   UNL     1      -2.153   3.231  -2.139  1.00  0.00     0.113 C
ATOM      6  C   UNL     1      -1.126   3.561  -1.104  1.00  0.00     0.035 C
ATOM      7  C   UNL     1      -2.578   3.824  -0.834  1.00  0.00    -0.014 C
ATOM      8  C   UNL     1      -3.252   2.961   0.180  1.00  0.00     0.012 C
ATOM      9  C   UNL     1      -3.095   5.224  -0.863  1.00  0.00     0.012 C
BRANCH   6  10
ATOM     10  C   UNL     1      -0.437   2.466  -0.438  1.00  0.00     0.001 C
ATOM     11  Br  UNL     1       2.001   2.840  -1.851  1.00  0.00    -0.043 Br
ATOM     12  C   UNL     1       0.826   2.047  -0.628  1.00  0.00     0.057 C
ATOM     13  Br  UNL     1       1.523   0.603   0.343  1.00  0.00    -0.043 Br
ENDBRANCH   6  10
ENDBRANCH   3   5
ENDBRANCH   2   3
ENDBRANCH   1   2
BRANCH   1  14
ATOM     14  C   UNL     1      -5.482   2.683  -2.841  1.00  0.00     0.011 A
ATOM     15  C   UNL     1      -5.086   3.772  -3.619  1.00  0.00     0.055 A
ATOM     16  C   UNL     1      -6.603   2.786  -2.018  1.00  0.00     0.009 A
ATOM     17  C   UNL     1      -5.811   4.962  -3.572  1.00  0.00     0.127 A
ATOM     18  C   UNL     1      -7.328   3.977  -1.971  1.00  0.00     0.004 A
ATOM     19  C   UNL     1      -6.931   5.066  -2.748  1.00  0.00     0.047 A
BRANCH  17  20
ATOM     20  O   UNL     1      -5.424   6.026  -4.330  1.00  0.00    -0.457 OA
BRANCH  20  21
ATOM     21  C   UNL     1      -4.397   6.820  -3.847  1.00  0.00     0.127 A
ATOM     22  C   UNL     1      -3.106   6.590  -4.286  1.00  0.00     0.047 A
ATOM     23  C   UNL     1      -4.689   7.822  -2.939  1.00  0.00     0.047 A
ATOM     24  C   UNL     1      -2.070   7.389  -3.800  1.00  0.00     0.004 A
ATOM     25  C   UNL     1      -3.654   8.620  -2.453  1.00  0.00     0.004 A
ATOM     26  C   UNL     1      -2.345   8.405  -2.884  1.00  0.00     0.000 A
ENDBRANCH  20  21
ENDBRANCH  17  20
ENDBRANCH   1  14
BRANCH   1  27
ATOM     27  C   UNL     1      -5.357   0.384  -3.733  1.00  0.00     0.113 C
ATOM     28  N   UNL     1      -5.874  -0.423  -4.386  1.00  0.00    -0.194 NA
ENDBRANCH   1  27
TORSDOF 8
ENDMDL
MODEL 2
REMARK VINA RESULT:    -6.902      3.564      5.409
REMARK INTER + INTRA:         -11.377
REMARK INTER:                 -10.224
REMARK INTRA:                  -1.153
REMARK UNBOUND:                -1.247
REMARK SMILES CC1(C)C(C=C(Br)Br)C1C(=O)OC(C#N)c1cccc(Oc2ccccc2)c1
REMARK SMILES IDX 13 1 12 2 10 3 11 4 9 5 4 6 2 7 1 8 3 9 5 10 7 11 6 12 8 13
REMARK SMILES IDX 16 14 28 15 17 16 20 17 18 18 19 19 21 20 22 21 23 22 27 23
REMARK SMILES IDX 24 24 26 25 25 26 14 27 15 28
REMARK H PARENT
REMARK Flexibility Score: inf
ROOT
ATOM      1  C   UNL     1       1.087   3.513  -4.086  1.00  0.00     0.309 C
ENDROOT
BRANCH   1   2
ATOM      2  O   UNL     1       0.812   2.335  -3.316  1.00  0.00    -0.442 OA
BRANCH   2   3
ATOM      3  C   UNL     1      -0.323   1.669  -3.658  1.00  0.00     0.311 C
ATOM      4  O   UNL     1      -1.081   1.929  -4.582  1.00  0.00    -0.252 OA
BRANCH   3   5
ATOM      5  C   UNL     1      -0.574   0.522  -2.746  1.00  0.00     0.113 C
ATOM      6  C   UNL     1      -1.883   0.461  -2.028  1.00  0.00     0.035 C
ATOM      7  C   UNL     1      -0.620   0.739  -1.267  1.00  0.00    -0.014 C
ATOM      8  C   UNL     1      -0.440   2.116  -0.721  1.00  0.00     0.012 C
ATOM      9  C   UNL     1      -0.024  -0.326  -0.408  1.00  0.00     0.012 C
BRANCH   6  10
ATOM     10  C   UNL     1      -2.852   1.520  -2.263  1.00  0.00     0.001 C
ATOM     11  Br  UNL     1      -4.768  -0.192  -3.479  1.00  0.00    -0.043 Br
ATOM     12  C   UNL     1      -4.063   1.419  -2.839  1.00  0.00     0.057 C
ATOM     13  Br  UNL     1      -5.164   2.923  -3.047  1.00  0.00    -0.043 Br
ENDBRANCH   6  10
ENDBRANCH   3   5
ENDBRANCH   2   3
ENDBRANCH   1   2
BRANCH   1  14
ATOM     14  C   UNL     1       0.618   4.722  -3.350  1.00  0.00     0.011 A
ATOM     15  C   UNL     1      -0.184   5.665  -3.995  1.00  0.00     0.055 A
ATOM     16  C   UNL     1       0.979   4.910  -2.016  1.00  0.00     0.009 A
ATOM     17  C   UNL     1      -0.623   6.795  -3.307  1.00  0.00     0.127 A
ATOM     18  C   UNL     1       0.540   6.041  -1.328  1.00  0.00     0.004 A
ATOM     19  C   UNL     1      -0.261   6.984  -1.973  1.00  0.00     0.047 A
BRANCH  17  20
ATOM     20  O   UNL     1      -1.404   7.715  -3.936  1.00  0.00    -0.457 OA
BRANCH  20  21
ATOM     21  C   UNL     1      -2.727   7.816  -3.537  1.00  0.00     0.127 A
ATOM     22  C   UNL     1      -3.531   6.692  -3.581  1.00  0.00     0.047 A
ATOM     23  C   UNL     1      -3.210   9.039  -3.106  1.00  0.00     0.047 A
ATOM     24  C   UNL     1      -4.864   6.793  -3.180  1.00  0.00     0.004 A
ATOM     25  C   UNL     1      -4.542   9.140  -2.706  1.00  0.00     0.004 A
ATOM     26  C   UNL     1      -5.369   8.017  -2.742  1.00  0.00     0.000 A
ENDBRANCH  20  21
ENDBRANCH  17  20
ENDBRANCH   1  14
BRANCH   1  27
ATOM     27  C   UNL     1       2.528   3.565  -4.403  1.00  0.00     0.113 C
ATOM     28  N   UNL     1       3.659   3.601  -4.663  1.00  0.00    -0.194 NA
ENDBRANCH   1  27
TORSDOF 8
ENDMDL
MODEL 3
REMARK VINA RESULT:    -6.882      1.580      2.084
REMARK INTER + INTRA:         -11.348
REMARK INTER:                  -9.853
REMARK INTRA:                  -1.495
REMARK UNBOUND:                -1.247
REMARK SMILES CC1(C)C(C=C(Br)Br)C1C(=O)OC(C#N)c1cccc(Oc2ccccc2)c1
REMARK SMILES IDX 13 1 12 2 10 3 11 4 9 5 4 6 2 7 1 8 3 9 5 10 7 11 6 12 8 13
REMARK SMILES IDX 16 14 28 15 17 16 20 17 18 18 19 19 21 20 22 21 23 22 27 23
REMARK SMILES IDX 24 24 26 25 25 26 14 27 15 28
REMARK H PARENT
REMARK Flexibility Score: inf
ROOT
ATOM      1  C   UNL     1      -4.474   1.194  -2.862  1.00  0.00     0.309 C
ENDROOT
BRANCH   1   2
ATOM      2  O   UNL     1      -3.113   1.310  -3.297  1.00  0.00    -0.442 OA
BRANCH   2   3
ATOM      3  C   UNL     1      -2.183   0.819  -2.434  1.00  0.00     0.311 C
ATOM      4  O   UNL     1      -1.464  -0.156  -2.601  1.00  0.00    -0.252 OA
BRANCH   3   5
ATOM      5  C   UNL     1      -2.119   1.629  -1.190  1.00  0.00     0.113 C
ATOM      6  C   UNL     1      -1.270   2.860  -1.188  1.00  0.00     0.035 C
ATOM      7  C   UNL     1      -0.861   1.662  -0.383  1.00  0.00    -0.014 C
ATOM      8  C   UNL     1       0.332   0.897  -0.852  1.00  0.00     0.012 C
ATOM      9  C   UNL     1      -1.009   1.682   1.102  1.00  0.00     0.012 C
BRANCH   6  10
ATOM     10  C   UNL     1      -0.556   3.210  -2.407  1.00  0.00     0.001 C
ATOM     11  Br  UNL     1       0.330   5.730  -1.434  1.00  0.00    -0.043 Br
ATOM     12  C   UNL     1       0.139   4.331  -2.664  1.00  0.00     0.057 C
ATOM     13  Br  UNL     1       0.991   4.584  -4.315  1.00  0.00    -0.043 Br
ENDBRANCH   6  10
ENDBRANCH   3   5
ENDBRANCH   2   3
ENDBRANCH   1   2
BRANCH   1  14
ATOM     14  C   UNL     1      -5.142   2.525  -2.924  1.00  0.00     0.011 A
ATOM     15  C   UNL     1      -4.643   3.519  -3.768  1.00  0.00     0.055 A
ATOM     16  C   UNL     1      -6.268   2.778  -2.140  1.00  0.00     0.009 A
ATOM     17  C   UNL     1      -5.269   4.763  -3.826  1.00  0.00     0.127 A
ATOM     18  C   UNL     1      -6.893   4.024  -2.199  1.00  0.00     0.004 A
ATOM     19  C   UNL     1      -6.393   5.016  -3.041  1.00  0.00     0.047 A
BRANCH  17  20
ATOM     20  O   UNL     1      -4.781   5.733  -4.648  1.00  0.00    -0.457 OA
BRANCH  20  21
ATOM     21  C   UNL     1      -3.840   6.605  -4.127  1.00  0.00     0.127 A
ATOM     22  C   UNL     1      -2.540   6.552  -4.595  1.00  0.00     0.047 A
ATOM     23  C   UNL     1      -4.225   7.508  -3.151  1.00  0.00     0.047 A
ATOM     24  C   UNL     1      -1.592   7.430  -4.069  1.00  0.00     0.004 A
ATOM     25  C   UNL     1      -3.277   8.385  -2.626  1.00  0.00     0.004 A
ATOM     26  C   UNL     1      -1.961   8.348  -3.085  1.00  0.00     0.000 A
ENDBRANCH  20  21
ENDBRANCH  17  20
ENDBRANCH   1  14
BRANCH   1  27
ATOM     27  C   UNL     1      -5.164   0.174  -3.678  1.00  0.00     0.113 C
ATOM     28  N   UNL     1      -5.712  -0.620  -4.323  1.00  0.00    -0.194 NA
ENDBRANCH   1  27
TORSDOF 8
ENDMDL
MODEL 4
REMARK VINA RESULT:    -6.873      2.240      4.362
REMARK INTER + INTRA:         -11.334
REMARK INTER:                 -10.697
REMARK INTRA:                  -0.637
REMARK UNBOUND:                -1.247
REMARK SMILES CC1(C)C(C=C(Br)Br)C1C(=O)OC(C#N)c1cccc(Oc2ccccc2)c1
REMARK SMILES IDX 13 1 12 2 10 3 11 4 9 5 4 6 2 7 1 8 3 9 5 10 7 11 6 12 8 13
REMARK SMILES IDX 16 14 28 15 17 16 20 17 18 18 19 19 21 20 22 21 23 22 27 23
REMARK SMILES IDX 24 24 26 25 25 26 14 27 15 28
REMARK H PARENT
REMARK Flexibility Score: inf
ROOT
ATOM      1  C   UNL     1      -4.183   1.662  -2.357  1.00  0.00     0.309 C
ENDROOT
BRANCH   1   2
ATOM      2  O   UNL     1      -2.853   1.776  -2.883  1.00  0.00    -0.442 OA
BRANCH   2   3
ATOM      3  C   UNL     1      -1.890   1.130  -2.173  1.00  0.00     0.311 C
ATOM      4  O   UNL     1      -1.357   0.065  -2.452  1.00  0.00    -0.252 OA
BRANCH   3   5
ATOM      5  C   UNL     1      -1.522   1.887  -0.948  1.00  0.00     0.113 C
ATOM      6  C   UNL     1      -0.187   2.560  -0.904  1.00  0.00     0.035 C
ATOM      7  C   UNL     1      -0.457   1.365  -0.038  1.00  0.00    -0.014 C
ATOM      8  C   UNL     1       0.248   0.096  -0.385  1.00  0.00     0.012 C
ATOM      9  C   UNL     1      -0.669   1.546   1.428  1.00  0.00     0.012 C
BRANCH   6  10
ATOM     10  C   UNL     1       0.682   2.450  -2.066  1.00  0.00     0.001 C
ATOM     11  Br  UNL     1      -0.389   4.739  -3.367  1.00  0.00    -0.043 Br
ATOM     12  C   UNL     1       0.723   3.250  -3.145  1.00  0.00     0.057 C
ATOM     13  Br  UNL     1       1.930   2.927  -4.543  1.00  0.00    -0.043 Br
ENDBRANCH   6  10
ENDBRANCH   3   5
ENDBRANCH   2   3
ENDBRANCH   1   2
BRANCH   1  14
ATOM     14  C   UNL     1      -4.874   2.980  -2.434  1.00  0.00     0.011 A
ATOM     15  C   UNL     1      -6.268   3.042  -2.388  1.00  0.00     0.055 A
ATOM     16  C   UNL     1      -4.128   4.153  -2.549  1.00  0.00     0.009 A
ATOM     17  C   UNL     1      -6.914   4.275  -2.460  1.00  0.00     0.127 A
ATOM     18  C   UNL     1      -4.775   5.387  -2.621  1.00  0.00     0.004 A
ATOM     19  C   UNL     1      -6.168   5.448  -2.576  1.00  0.00     0.047 A
BRANCH  17  20
ATOM     20  O   UNL     1      -8.273   4.335  -2.417  1.00  0.00    -0.457 OA
BRANCH  20  21
ATOM     21  C   UNL     1      -8.876   4.385  -1.170  1.00  0.00     0.127 A
ATOM     22  C   UNL     1      -9.570   3.281  -0.713  1.00  0.00     0.047 A
ATOM     23  C   UNL     1      -8.767   5.540  -0.415  1.00  0.00     0.047 A
ATOM     24  C   UNL     1     -10.178   3.331   0.542  1.00  0.00     0.004 A
ATOM     25  C   UNL     1      -9.374   5.590   0.839  1.00  0.00     0.004 A
ATOM     26  C   UNL     1     -10.079   4.485   1.319  1.00  0.00     0.000 A
ENDBRANCH  20  21
ENDBRANCH  17  20
ENDBRANCH   1  14
BRANCH   1  27
ATOM     27  C   UNL     1      -4.906   0.598  -3.081  1.00  0.00     0.113 C
ATOM     28  N   UNL     1      -5.480  -0.241  -3.641  1.00  0.00    -0.194 NA
ENDBRANCH   1  27
TORSDOF 8
ENDMDL
MODEL 5
REMARK VINA RESULT:    -6.758      2.126      3.000
REMARK INTER + INTRA:         -11.165
REMARK INTER:                  -9.961
REMARK INTRA:                  -1.204
REMARK UNBOUND:                -1.247
REMARK SMILES CC1(C)C(C=C(Br)Br)C1C(=O)OC(C#N)c1cccc(Oc2ccccc2)c1
REMARK SMILES IDX 13 1 12 2 10 3 11 4 9 5 4 6 2 7 1 8 3 9 5 10 7 11 6 12 8 13
REMARK SMILES IDX 16 14 28 15 17 16 20 17 18 18 19 19 21 20 22 21 23 22 27 23
REMARK SMILES IDX 24 24 26 25 25 26 14 27 15 28
REMARK H PARENT
REMARK Flexibility Score: inf
ROOT
ATOM      1  C   UNL     1      -2.408   1.264  -3.325  1.00  0.00     0.309 C
ENDROOT
BRANCH   1   2
ATOM      2  O   UNL     1      -1.321   1.977  -3.932  1.00  0.00    -0.442 OA
BRANCH   2   3
ATOM      3  C   UNL     1      -0.193   2.068  -3.177  1.00  0.00     0.311 C
ATOM      4  O   UNL     1       0.933   2.348  -3.565  1.00  0.00    -0.252 OA
BRANCH   3   5
ATOM      5  C   UNL     1      -0.473   1.778  -1.747  1.00  0.00     0.113 C
ATOM      6  C   UNL     1      -0.357   2.895  -0.761  1.00  0.00     0.035 C
ATOM      7  C   UNL     1       0.643   1.776  -0.752  1.00  0.00    -0.014 C
ATOM      8  C   UNL     1       2.030   2.095  -1.203  1.00  0.00     0.012 C
ATOM      9  C   UNL     1       0.589   0.744   0.324  1.00  0.00     0.012 C
BRANCH   6  10
ATOM     10  C   UNL     1       0.015   4.214  -1.250  1.00  0.00     0.001 C
ATOM     11  Br  UNL     1      -2.538   5.364  -0.758  1.00  0.00    -0.043 Br
ATOM     12  C   UNL     1      -0.751   5.316  -1.315  1.00  0.00     0.057 C
ATOM     13  Br  UNL     1      -0.070   6.930  -1.986  1.00  0.00    -0.043 Br
ENDBRANCH   6  10
ENDBRANCH   3   5
ENDBRANCH   2   3
ENDBRANCH   1   2
BRANCH   1  14
ATOM     14  C   UNL     1      -3.617   2.133  -3.267  1.00  0.00     0.011 A
ATOM     15  C   UNL     1      -3.655   3.326  -3.992  1.00  0.00     0.055 A
ATOM     16  C   UNL     1      -4.711   1.754  -2.491  1.00  0.00     0.009 A
ATOM     17  C   UNL     1      -4.787   4.138  -3.938  1.00  0.00     0.127 A
ATOM     18  C   UNL     1      -5.843   2.568  -2.437  1.00  0.00     0.004 A
ATOM     19  C   UNL     1      -5.881   3.760  -3.160  1.00  0.00     0.047 A
BRANCH  17  20
ATOM     20  O   UNL     1      -4.824   5.302  -4.643  1.00  0.00    -0.457 OA
BRANCH  20  21
ATOM     21  C   UNL     1      -4.377   6.451  -4.013  1.00  0.00     0.127 A
ATOM     22  C   UNL     1      -3.094   6.902  -4.265  1.00  0.00     0.047 A
ATOM     23  C   UNL     1      -5.224   7.118  -3.147  1.00  0.00     0.047 A
ATOM     24  C   UNL     1      -2.642   8.059  -3.630  1.00  0.00     0.004 A
ATOM     25  C   UNL     1      -4.773   8.274  -2.511  1.00  0.00     0.004 A
ATOM     26  C   UNL     1      -3.483   8.746  -2.753  1.00  0.00     0.000 A
ENDBRANCH  20  21
ENDBRANCH  17  20
ENDBRANCH   1  14
BRANCH   1  27
ATOM     27  C   UNL     1      -2.644   0.009  -4.068  1.00  0.00     0.113 C
ATOM     28  N   UNL     1      -2.826  -0.971  -4.661  1.00  0.00    -0.194 NA
ENDBRANCH   1  27
TORSDOF 8
ENDMDL
