MODEL 1
REMARK VINA RESULT:    -5.946      0.000      0.000
REMARK INTER + INTRA:          -7.613
REMARK INTER:                  -6.989
REMARK INTRA:                  -0.625
REMARK UNBOUND:                -0.625
REMARK SMILES Clc1ccc(C(c2ccc(Cl)cc2)C(Cl)(Cl)Cl)cc1
REMARK SMILES IDX 6 1 14 2 15 3 16 4 17 5 5 6 4 7 18 8 3 9 19 10 2 11 1 12
REMARK SMILES IDX 7 13 8 14 13 15 9 16 12 17 10 18 11 19
REMARK H PARENT
REMARK Flexibility Score: inf
ROOT
ATOM      1  C   UNL     1      -1.292   1.969  -1.184  1.00  0.00     0.101 C 
ENDROOT
BRANCH   1   2
ATOM      2  C   UNL     1      -1.706   1.119  -2.457  1.00  0.00     0.201 C 
ATOM      3  Cl  UNL     1      -1.046   1.738  -4.005  1.00  0.00    -0.083 Cl
ATOM      4  Cl  UNL     1      -3.512   1.138  -2.629  1.00  0.00    -0.083 Cl
ATOM      5  Cl  UNL     1      -1.243  -0.618  -2.298  1.00  0.00    -0.083 Cl
ENDBRANCH   1   2
BRANCH   1   6
ATOM      6  C   UNL     1      -1.715   3.400  -1.198  1.00  0.00    -0.036 A 
ATOM      7  C   UNL     1      -2.237   3.983  -0.044  1.00  0.00     0.006 A 
ATOM      8  C   UNL     1      -1.589   4.153  -2.365  1.00  0.00     0.006 A 
ATOM      9  C   UNL     1      -2.634   5.321  -0.057  1.00  0.00     0.021 A 
ATOM     10  C   UNL     1      -1.984   5.491  -2.378  1.00  0.00     0.021 A 
ATOM     11  C   UNL     1      -2.507   6.074  -1.225  1.00  0.00     0.041 A 
ATOM     12  Cl  UNL     1      -2.997   7.724  -1.241  1.00  0.00    -0.084 Cl
ENDBRANCH   1   6
BRANCH   1  13
ATOM     13  C   UNL     1       0.158   1.778  -0.671  1.00  0.00    -0.036 A 
ATOM     14  C   UNL     1       0.336   1.109   0.508  1.00  0.00     0.006 A 
ATOM     15  C   UNL     1       1.176   2.290  -1.425  1.00  0.00     0.006 A 
ATOM     16  C   UNL     1       1.640   0.938   0.970  1.00  0.00     0.021 A 
ATOM     17  C   UNL     1       2.481   2.119  -0.962  1.00  0.00     0.021 A 
ATOM     18  C   UNL     1       2.713   1.443   0.235  1.00  0.00     0.041 A 
ATOM     19  Cl  UNL     1       4.323   1.233   0.806  1.00  0.00    -0.084 Cl
ENDBRANCH   1  13
TORSDOF 3
ENDMDL
MODEL 2
REMARK VINA RESULT:    -5.901      2.218      4.646
REMARK INTER + INTRA:          -7.560
REMARK INTER:                  -7.068
REMARK INTRA:                  -0.492
REMARK UNBOUND:                -0.625
REMARK SMILES Clc1ccc(C(c2ccc(Cl)cc2)C(Cl)(Cl)Cl)cc1
REMARK SMILES IDX 6 1 14 2 15 3 16 4 17 5 5 6 4 7 18 8 3 9 19 10 2 11 1 12
REMARK SMILES IDX 7 13 8 14 13 15 9 16 12 17 10 18 11 19
REMARK H PARENT
REMARK Flexibility Score: inf
ROOT
ATOM      1  C   UNL     1      -0.012   1.468  -1.576  1.00  0.00     0.101 C 
ENDROOT
BRANCH   1   2
ATOM      2  C   UNL     1       0.376   0.869  -0.160  1.00  0.00     0.201 C 
ATOM      3  Cl  UNL     1      -0.603   1.502   1.203  1.00  0.00    -0.083 Cl
ATOM      4  Cl  UNL     1       2.102   1.288   0.216  1.00  0.00    -0.083 Cl
ATOM      5  Cl  UNL     1       0.287  -0.933  -0.133  1.00  0.00    -0.083 Cl
ENDBRANCH   1   2
BRANCH   1   6
ATOM      6  C   UNL     1       0.048   2.954  -1.687  1.00  0.00    -0.036 A 
ATOM      7  C   UNL     1      -0.789   3.746  -0.900  1.00  0.00     0.006 A 
ATOM      8  C   UNL     1       0.939   3.553  -2.578  1.00  0.00     0.006 A 
ATOM      9  C   UNL     1      -0.734   5.136  -1.004  1.00  0.00     0.021 A 
ATOM     10  C   UNL     1       0.994   4.942  -2.682  1.00  0.00     0.021 A 
ATOM     11  C   UNL     1       0.158   5.734  -1.895  1.00  0.00     0.041 A 
ATOM     12  Cl  UNL     1       0.226   7.449  -2.025  1.00  0.00    -0.084 Cl
ENDBRANCH   1   6
BRANCH   1  13
ATOM     13  C   UNL     1      -1.268   0.867  -2.256  1.00  0.00    -0.036 A 
ATOM     14  C   UNL     1      -2.494   1.280  -1.816  1.00  0.00     0.006 A 
ATOM     15  C   UNL     1      -1.077  -0.045  -3.257  1.00  0.00     0.006 A 
ATOM     16  C   UNL     1      -3.623   0.737  -2.428  1.00  0.00     0.021 A 
ATOM     17  C   UNL     1      -2.207  -0.589  -3.868  1.00  0.00     0.021 A 
ATOM     18  C   UNL     1      -3.481  -0.197  -3.454  1.00  0.00     0.041 A 
ATOM     19  Cl  UNL     1      -4.875  -0.868  -4.209  1.00  0.00    -0.084 Cl
ENDBRANCH   1  13
TORSDOF 3
ENDMDL
MODEL 3
REMARK VINA RESULT:    -5.890      2.222      4.811
REMARK INTER + INTRA:          -7.547
REMARK INTER:                  -7.054
REMARK INTRA:                  -0.493
REMARK UNBOUND:                -0.625
REMARK SMILES Clc1ccc(C(c2ccc(Cl)cc2)C(Cl)(Cl)Cl)cc1
REMARK SMILES IDX 6 1 14 2 15 3 16 4 17 5 5 6 4 7 18 8 3 9 19 10 2 11 1 12
REMARK SMILES IDX 7 13 8 14 13 15 9 16 12 17 10 18 11 19
REMARK H PARENT
REMARK Flexibility Score: inf
ROOT
ATOM      1  C   UNL     1      -0.040   1.474  -1.583  1.00  0.00     0.101 C 
ENDROOT
BRANCH   1   2
ATOM      2  C   UNL     1       0.336   0.885  -0.159  1.00  0.00     0.201 C 
ATOM      3  Cl  UNL     1      -0.644   1.539   1.193  1.00  0.00    -0.083 Cl
ATOM      4  Cl  UNL     1       2.063   1.291   0.221  1.00  0.00    -0.083 Cl
ATOM      5  Cl  UNL     1       0.230  -0.916  -0.115  1.00  0.00    -0.083 Cl
ENDBRANCH   1   2
BRANCH   1   6
ATOM      6  C   UNL     1       0.015   2.959  -1.702  1.00  0.00    -0.036 A 
ATOM      7  C   UNL     1       0.883   3.553  -2.618  1.00  0.00     0.006 A 
ATOM      8  C   UNL     1      -0.799   3.755  -0.895  1.00  0.00     0.006 A 
ATOM      9  C   UNL     1       0.936   4.943  -2.729  1.00  0.00     0.021 A 
ATOM     10  C   UNL     1      -0.746   5.144  -1.007  1.00  0.00     0.021 A 
ATOM     11  C   UNL     1       0.121   5.738  -1.923  1.00  0.00     0.041 A 
ATOM     12  Cl  UNL     1       0.186   7.453  -2.059  1.00  0.00    -0.084 Cl
ENDBRANCH   1   6
BRANCH   1  13
ATOM     13  C   UNL     1      -1.286   0.863  -2.273  1.00  0.00    -0.036 A 
ATOM     14  C   UNL     1      -1.083  -0.052  -3.267  1.00  0.00     0.006 A 
ATOM     15  C   UNL     1      -2.518   1.276  -1.848  1.00  0.00     0.006 A 
ATOM     16  C   UNL     1      -2.205  -0.599  -3.889  1.00  0.00     0.021 A 
ATOM     17  C   UNL     1      -3.640   0.728  -2.470  1.00  0.00     0.021 A 
ATOM     18  C   UNL     1      -3.484  -0.210  -3.490  1.00  0.00     0.041 A 
ATOM     19  Cl  UNL     1      -4.869  -0.886  -4.257  1.00  0.00    -0.084 Cl
ENDBRANCH   1  13
TORSDOF 3
ENDMDL
MODEL 4
REMARK VINA RESULT:    -5.795      2.856      3.851
REMARK INTER + INTRA:          -7.436
REMARK INTER:                  -6.834
REMARK INTRA:                  -0.602
REMARK UNBOUND:                -0.625
REMARK SMILES Clc1ccc(C(c2ccc(Cl)cc2)C(Cl)(Cl)Cl)cc1
REMARK SMILES IDX 6 1 14 2 15 3 16 4 17 5 5 6 4 7 18 8 3 9 19 10 2 11 1 12
REMARK SMILES IDX 7 13 8 14 13 15 9 16 12 17 10 18 11 19
REMARK H PARENT
REMARK Flexibility Score: inf
ROOT
ATOM      1  C   UNL     1      -2.318   4.648  -1.848  1.00  0.00     0.101 C 
ENDROOT
BRANCH   1   2
ATOM      2  C   UNL     1      -3.359   3.461  -1.997  1.00  0.00     0.201 C 
ATOM      3  Cl  UNL     1      -5.009   3.849  -1.410  1.00  0.00    -0.083 Cl
ATOM      4  Cl  UNL     1      -2.793   2.040  -1.021  1.00  0.00    -0.083 Cl
ATOM      5  Cl  UNL     1      -3.487   2.874  -3.698  1.00  0.00    -0.083 Cl
ENDBRANCH   1   2
BRANCH   1   6
ATOM      6  C   UNL     1      -2.865   6.018  -2.065  1.00  0.00    -0.036 A 
ATOM      7  C   UNL     1      -2.376   7.090  -1.319  1.00  0.00     0.006 A 
ATOM      8  C   UNL     1      -3.867   6.227  -3.013  1.00  0.00     0.006 A 
ATOM      9  C   UNL     1      -2.888   8.372  -1.521  1.00  0.00     0.021 A 
ATOM     10  C   UNL     1      -4.379   7.509  -3.216  1.00  0.00     0.021 A 
ATOM     11  C   UNL     1      -3.890   8.581  -2.470  1.00  0.00     0.041 A 
ATOM     12  Cl  UNL     1      -4.523  10.162  -2.720  1.00  0.00    -0.084 Cl
ENDBRANCH   1   6
BRANCH   1  13
ATOM     13  C   UNL     1      -0.937   4.440  -2.520  1.00  0.00    -0.036 A 
ATOM     14  C   UNL     1       0.053   3.855  -1.782  1.00  0.00     0.006 A 
ATOM     15  C   UNL     1      -0.788   4.855  -3.814  1.00  0.00     0.006 A 
ATOM     16  C   UNL     1       1.295   3.670  -2.387  1.00  0.00     0.021 A 
ATOM     17  C   UNL     1       0.456   4.671  -4.419  1.00  0.00     0.021 A 
ATOM     18  C   UNL     1       1.497   4.077  -3.706  1.00  0.00     0.041 A 
ATOM     19  Cl  UNL     1       3.031   3.849  -4.453  1.00  0.00    -0.084 Cl
ENDBRANCH   1  13
TORSDOF 3
ENDMDL
MODEL 5
REMARK VINA RESULT:    -5.788      4.222      5.716
REMARK INTER + INTRA:          -7.427
REMARK INTER:                  -6.811
REMARK INTRA:                  -0.617
REMARK UNBOUND:                -0.625
REMARK SMILES Clc1ccc(C(c2ccc(Cl)cc2)C(Cl)(Cl)Cl)cc1
REMARK SMILES IDX 6 1 14 2 15 3 16 4 17 5 5 6 4 7 18 8 3 9 19 10 2 11 1 12
REMARK SMILES IDX 7 13 8 14 13 15 9 16 12 17 10 18 11 19
REMARK H PARENT
REMARK Flexibility Score: inf
ROOT
ATOM      1  C   UNL     1      -4.595   4.539  -2.465  1.00  0.00     0.101 C 
ENDROOT
BRANCH   1   2
ATOM      2  C   UNL     1      -5.920   5.266  -2.943  1.00  0.00     0.201 C 
ATOM      3  Cl  UNL     1      -5.898   7.048  -2.741  1.00  0.00    -0.083 Cl
ATOM      4  Cl  UNL     1      -7.323   4.661  -1.964  1.00  0.00    -0.083 Cl
ATOM      5  Cl  UNL     1      -6.321   4.897  -4.663  1.00  0.00    -0.083 Cl
ENDBRANCH   1   2
BRANCH   1   6
ATOM      6  C   UNL     1      -3.361   5.376  -2.471  1.00  0.00    -0.036 A 
ATOM      7  C   UNL     1      -3.047   6.147  -3.589  1.00  0.00     0.006 A 
ATOM      8  C   UNL     1      -2.520   5.387  -1.357  1.00  0.00     0.006 A 
ATOM      9  C   UNL     1      -1.892   6.930  -3.596  1.00  0.00     0.021 A 
ATOM     10  C   UNL     1      -1.365   6.170  -1.363  1.00  0.00     0.021 A 
ATOM     11  C   UNL     1      -1.051   6.941  -2.482  1.00  0.00     0.041 A 
ATOM     12  Cl  UNL     1       0.374   7.906  -2.489  1.00  0.00    -0.084 Cl
ENDBRANCH   1   6
BRANCH   1  13
ATOM     13  C   UNL     1      -4.354   3.113  -3.022  1.00  0.00    -0.036 A 
ATOM     14  C   UNL     1      -5.102   2.090  -2.509  1.00  0.00     0.006 A 
ATOM     15  C   UNL     1      -3.406   2.958  -3.995  1.00  0.00     0.006 A 
ATOM     16  C   UNL     1      -4.883   0.807  -3.009  1.00  0.00     0.021 A 
ATOM     17  C   UNL     1      -3.188   1.674  -4.495  1.00  0.00     0.021 A 
ATOM     18  C   UNL     1      -3.927   0.599  -4.003  1.00  0.00     0.041 A 
ATOM     19  Cl  UNL     1      -3.657  -0.985  -4.620  1.00  0.00    -0.084 Cl
ENDBRANCH   1  13
TORSDOF 3
ENDMDL
