MODEL 1
REMARK VINA RESULT:    -6.524      0.000      0.000
REMARK INTER + INTRA:         -12.375
REMARK INTER:                  -9.194
REMARK INTRA:                  -3.181
REMARK UNBOUND:                -3.181
REMARK SMILES CC1(C)[C@H](C=C(Cl)Cl)[C@H]1C(=O)OCc1cccc(Oc2ccccc2)c1
REMARK SMILES IDX 13 1 12 2 10 3 11 4 9 5 4 6 2 7 1 8 3 9 5 10 7 11 6 12 8 13
REMARK SMILES IDX 14 14 26 15 15 16 18 17 16 18 17 19 19 20 20 21 21 22 25 23
REMARK SMILES IDX 22 24 24 25 23 26
REMARK H PARENT
REMARK Flexibility Score: inf
ROOT
ATOM      1  C   UNL     1      -0.573   6.905  -3.169  1.00  0.00     0.268 C 
ENDROOT
BRANCH   1   2
ATOM      2  O   UNL     1      -0.389   5.518  -2.915  1.00  0.00    -0.461 OA
BRANCH   2   3
ATOM      3  C   UNL     1      -0.051   5.189  -1.635  1.00  0.00     0.310 C 
ATOM      4  O   UNL     1       0.635   5.851  -0.869  1.00  0.00    -0.252 OA
BRANCH   3   5
ATOM      5  C   UNL     1      -0.624   3.880  -1.230  1.00  0.00     0.113 C 
ATOM      6  C   UNL     1      -1.799   3.355  -1.992  1.00  0.00     0.035 C 
ATOM      7  C   UNL     1      -1.967   3.821  -0.576  1.00  0.00    -0.014 C 
ATOM      8  C   UNL     1      -2.234   2.782   0.461  1.00  0.00     0.012 C 
ATOM      9  C   UNL     1      -2.647   5.120  -0.298  1.00  0.00     0.012 C 
BRANCH   6  10
ATOM     10  C   UNL     1      -1.835   1.935  -2.310  1.00  0.00     0.011 C 
ATOM     11  Cl  UNL     1      -0.258   2.150  -4.484  1.00  0.00    -0.071 Cl
ATOM     12  C   UNL     1      -1.229   1.308  -3.331  1.00  0.00     0.103 C 
ATOM     13  Cl  UNL     1      -1.402  -0.400  -3.535  1.00  0.00    -0.071 Cl
ENDBRANCH   6  10
ENDBRANCH   3   5
ENDBRANCH   2   3
ENDBRANCH   1   2
BRANCH   1  14
ATOM     14  C   UNL     1      -2.024   7.238  -3.080  1.00  0.00    -0.007 A 
ATOM     15  C   UNL     1      -2.969   6.402  -3.674  1.00  0.00     0.054 A 
ATOM     16  C   UNL     1      -2.436   8.386  -2.401  1.00  0.00     0.007 A 
ATOM     17  C   UNL     1      -4.326   6.713  -3.589  1.00  0.00     0.127 A 
ATOM     18  C   UNL     1      -3.792   8.697  -2.318  1.00  0.00     0.004 A 
ATOM     19  C   UNL     1      -4.738   7.860  -2.912  1.00  0.00     0.047 A 
BRANCH  17  20
ATOM     20  O   UNL     1      -5.249   5.897  -4.169  1.00  0.00    -0.457 OA
BRANCH  20  21
ATOM     21  C   UNL     1      -5.288   4.576  -3.759  1.00  0.00     0.127 A 
ATOM     22  C   UNL     1      -4.954   3.581  -4.662  1.00  0.00     0.047 A 
ATOM     23  C   UNL     1      -5.659   4.282  -2.460  1.00  0.00     0.047 A 
ATOM     24  C   UNL     1      -4.993   2.250  -4.250  1.00  0.00     0.004 A 
ATOM     25  C   UNL     1      -5.697   2.950  -2.049  1.00  0.00     0.004 A 
ATOM     26  C   UNL     1      -5.364   1.934  -2.944  1.00  0.00     0.000 A 
ENDBRANCH  20  21
ENDBRANCH  17  20
ENDBRANCH   1  14
TORSDOF 7
ENDMDL
MODEL 2
REMARK VINA RESULT:    -6.267      3.303      5.363
REMARK INTER + INTRA:         -12.013
REMARK INTER:                  -9.834
REMARK INTRA:                  -2.178
REMARK UNBOUND:                -3.181
REMARK SMILES CC1(C)[C@H](C=C(Cl)Cl)[C@H]1C(=O)OCc1cccc(Oc2ccccc2)c1
REMARK SMILES IDX 13 1 12 2 10 3 11 4 9 5 4 6 2 7 1 8 3 9 5 10 7 11 6 12 8 13
REMARK SMILES IDX 14 14 26 15 15 16 18 17 16 18 17 19 19 20 20 21 21 22 25 23
REMARK SMILES IDX 22 24 24 25 23 26
REMARK H PARENT
REMARK Flexibility Score: inf
ROOT
ATOM      1  C   UNL     1      -2.856   3.353  -0.061  1.00  0.00     0.268 C 
ENDROOT
BRANCH   1   2
ATOM      2  O   UNL     1      -2.447   4.711  -0.173  1.00  0.00    -0.461 OA
BRANCH   2   3
ATOM      3  C   UNL     1      -1.280   4.926  -0.846  1.00  0.00     0.310 C 
ATOM      4  O   UNL     1      -0.264   4.248  -0.779  1.00  0.00    -0.252 OA
BRANCH   3   5
ATOM      5  C   UNL     1      -1.358   6.125  -1.718  1.00  0.00     0.113 C 
ATOM      6  C   UNL     1      -2.694   6.519  -2.264  1.00  0.00     0.035 C 
ATOM      7  C   UNL     1      -1.638   5.971  -3.180  1.00  0.00    -0.014 C 
ATOM      8  C   UNL     1      -1.014   6.916  -4.151  1.00  0.00     0.012 C 
ATOM      9  C   UNL     1      -1.762   4.581  -3.705  1.00  0.00     0.012 C 
BRANCH   6  10
ATOM     10  C   UNL     1      -3.035   7.934  -2.296  1.00  0.00     0.011 C 
ATOM     11  Cl  UNL     1      -5.628   7.527  -2.906  1.00  0.00    -0.071 Cl
ATOM     12  C   UNL     1      -4.233   8.482  -2.554  1.00  0.00     0.103 C 
ATOM     13  Cl  UNL     1      -4.428  10.200  -2.545  1.00  0.00    -0.071 Cl
ENDBRANCH   6  10
ENDBRANCH   3   5
ENDBRANCH   2   3
ENDBRANCH   1   2
BRANCH   1  14
ATOM     14  C   UNL     1      -3.849   3.044  -1.129  1.00  0.00    -0.007 A 
ATOM     15  C   UNL     1      -4.911   3.918  -1.368  1.00  0.00     0.054 A 
ATOM     16  C   UNL     1      -3.717   1.883  -1.890  1.00  0.00     0.007 A 
ATOM     17  C   UNL     1      -5.839   3.629  -2.368  1.00  0.00     0.127 A 
ATOM     18  C   UNL     1      -4.646   1.594  -2.889  1.00  0.00     0.004 A 
ATOM     19  C   UNL     1      -5.707   2.467  -3.128  1.00  0.00     0.047 A 
BRANCH  17  20
ATOM     20  O   UNL     1      -6.875   4.481  -2.601  1.00  0.00    -0.457 OA
BRANCH  20  21
ATOM     21  C   UNL     1      -7.872   4.560  -1.644  1.00  0.00     0.127 A 
ATOM     22  C   UNL     1      -8.109   5.771  -1.017  1.00  0.00     0.047 A 
ATOM     23  C   UNL     1      -8.605   3.428  -1.339  1.00  0.00     0.047 A 
ATOM     24  C   UNL     1      -9.113   5.851  -0.054  1.00  0.00     0.004 A 
ATOM     25  C   UNL     1      -9.611   3.510  -0.374  1.00  0.00     0.004 A 
ATOM     26  C   UNL     1      -9.865   4.721   0.268  1.00  0.00     0.000 A 
ENDBRANCH  20  21
ENDBRANCH  17  20
ENDBRANCH   1  14
TORSDOF 7
ENDMDL
MODEL 3
REMARK VINA RESULT:    -6.215      2.506      5.005
REMARK INTER + INTRA:         -11.940
REMARK INTER:                  -9.753
REMARK INTRA:                  -2.186
REMARK UNBOUND:                -3.181
REMARK SMILES CC1(C)[C@H](C=C(Cl)Cl)[C@H]1C(=O)OCc1cccc(Oc2ccccc2)c1
REMARK SMILES IDX 13 1 12 2 10 3 11 4 9 5 4 6 2 7 1 8 3 9 5 10 7 11 6 12 8 13
REMARK SMILES IDX 14 14 26 15 15 16 18 17 16 18 17 19 19 20 20 21 21 22 25 23
REMARK SMILES IDX 22 24 24 25 23 26
REMARK H PARENT
REMARK Flexibility Score: inf
ROOT
ATOM      1  C   UNL     1       1.256   3.787  -2.379  1.00  0.00     0.268 C 
ENDROOT
BRANCH   1   2
ATOM      2  O   UNL     1       0.305   4.821  -2.597  1.00  0.00    -0.461 OA
BRANCH   2   3
ATOM      3  C   UNL     1       0.119   5.687  -1.559  1.00  0.00     0.310 C 
ATOM      4  O   UNL     1       0.970   6.071  -0.769  1.00  0.00    -0.252 OA
BRANCH   3   5
ATOM      5  C   UNL     1      -1.289   6.148  -1.469  1.00  0.00     0.113 C 
ATOM      6  C   UNL     1      -2.176   5.957  -2.659  1.00  0.00     0.035 C 
ATOM      7  C   UNL     1      -1.740   7.336  -2.259  1.00  0.00    -0.014 C 
ATOM      8  C   UNL     1      -2.777   8.246  -1.691  1.00  0.00     0.012 C 
ATOM      9  C   UNL     1      -0.706   8.050  -3.064  1.00  0.00     0.012 C 
BRANCH   6  10
ATOM     10  C   UNL     1      -3.547   5.523  -2.434  1.00  0.00     0.011 C 
ATOM     11  Cl  UNL     1      -2.858   3.153  -1.352  1.00  0.00    -0.071 Cl
ATOM     12  C   UNL     1      -3.961   4.367  -1.893  1.00  0.00     0.103 C 
ATOM     13  Cl  UNL     1      -5.650   4.040  -1.716  1.00  0.00    -0.071 Cl
ENDBRANCH   6  10
ENDBRANCH   3   5
ENDBRANCH   2   3
ENDBRANCH   1   2
BRANCH   1  14
ATOM     14  C   UNL     1       0.548   2.481  -2.250  1.00  0.00    -0.007 A 
ATOM     15  C   UNL     1      -0.100   1.927  -3.354  1.00  0.00     0.054 A 
ATOM     16  C   UNL     1       0.536   1.812  -1.026  1.00  0.00     0.007 A 
ATOM     17  C   UNL     1      -0.761   0.705  -3.233  1.00  0.00     0.127 A 
ATOM     18  C   UNL     1      -0.125   0.590  -0.905  1.00  0.00     0.004 A 
ATOM     19  C   UNL     1      -0.774   0.037  -2.010  1.00  0.00     0.047 A 
BRANCH  17  20
ATOM     20  O   UNL     1      -1.395   0.165  -4.310  1.00  0.00    -0.457 OA
BRANCH  20  21
ATOM     21  C   UNL     1      -2.775   0.253  -4.357  1.00  0.00     0.127 A 
ATOM     22  C   UNL     1      -3.366   1.498  -4.491  1.00  0.00     0.047 A 
ATOM     23  C   UNL     1      -3.528  -0.903  -4.270  1.00  0.00     0.047 A 
ATOM     24  C   UNL     1      -4.757   1.587  -4.538  1.00  0.00     0.004 A 
ATOM     25  C   UNL     1      -4.920  -0.812  -4.318  1.00  0.00     0.004 A 
ATOM     26  C   UNL     1      -5.534   0.433  -4.452  1.00  0.00     0.000 A 
ENDBRANCH  20  21
ENDBRANCH  17  20
ENDBRANCH   1  14
TORSDOF 7
ENDMDL
MODEL 4
REMARK VINA RESULT:    -6.049      2.438      4.717
REMARK INTER + INTRA:         -11.706
REMARK INTER:                  -9.691
REMARK INTRA:                  -2.014
REMARK UNBOUND:                -3.181
REMARK SMILES CC1(C)[C@H](C=C(Cl)Cl)[C@H]1C(=O)OCc1cccc(Oc2ccccc2)c1
REMARK SMILES IDX 13 1 12 2 10 3 11 4 9 5 4 6 2 7 1 8 3 9 5 10 7 11 6 12 8 13
REMARK SMILES IDX 14 14 26 15 15 16 18 17 16 18 17 19 19 20 20 21 21 22 25 23
REMARK SMILES IDX 22 24 24 25 23 26
REMARK H PARENT
REMARK Flexibility Score: inf
ROOT
ATOM      1  C   UNL     1      -4.728   1.627  -3.823  1.00  0.00     0.268 C 
ENDROOT
BRANCH   1   2
ATOM      2  O   UNL     1      -3.309   1.679  -3.881  1.00  0.00    -0.461 OA
BRANCH   2   3
ATOM      3  C   UNL     1      -2.650   1.087  -2.843  1.00  0.00     0.310 C 
ATOM      4  O   UNL     1      -2.853  -0.032  -2.394  1.00  0.00    -0.252 OA
BRANCH   3   5
ATOM      5  C   UNL     1      -1.604   1.975  -2.274  1.00  0.00     0.113 C 
ATOM      6  C   UNL     1      -0.971   1.584  -0.976  1.00  0.00     0.035 C 
ATOM      7  C   UNL     1      -1.887   2.771  -1.040  1.00  0.00    -0.014 C 
ATOM      8  C   UNL     1      -1.272   4.121  -0.880  1.00  0.00     0.012 C 
ATOM      9  C   UNL     1      -3.263   2.678  -0.471  1.00  0.00     0.012 C 
BRANCH   6  10
ATOM     10  C   UNL     1       0.465   1.768  -0.827  1.00  0.00     0.011 C 
ATOM     11  Cl  UNL     1       0.770  -0.253   0.929  1.00  0.00    -0.071 Cl
ATOM     12  C   UNL     1       1.306   1.060  -0.056  1.00  0.00     0.103 C 
ATOM     13  Cl  UNL     1       2.991   1.445  -0.018  1.00  0.00    -0.071 Cl
ENDBRANCH   6  10
ENDBRANCH   3   5
ENDBRANCH   2   3
ENDBRANCH   1   2
BRANCH   1  14
ATOM     14  C   UNL     1      -5.257   2.956  -3.402  1.00  0.00    -0.007 A 
ATOM     15  C   UNL     1      -4.694   4.125  -3.915  1.00  0.00     0.054 A 
ATOM     16  C   UNL     1      -6.314   3.031  -2.495  1.00  0.00     0.007 A 
ATOM     17  C   UNL     1      -5.189   5.368  -3.520  1.00  0.00     0.127 A 
ATOM     18  C   UNL     1      -6.808   4.274  -2.100  1.00  0.00     0.004 A 
ATOM     19  C   UNL     1      -6.245   5.442  -2.614  1.00  0.00     0.047 A 
BRANCH  17  20
ATOM     20  O   UNL     1      -4.640   6.509  -4.021  1.00  0.00    -0.457 OA
BRANCH  20  21
ATOM     21  C   UNL     1      -3.424   6.921  -3.503  1.00  0.00     0.127 A 
ATOM     22  C   UNL     1      -3.399   7.568  -2.279  1.00  0.00     0.047 A 
ATOM     23  C   UNL     1      -2.268   6.675  -4.219  1.00  0.00     0.047 A 
ATOM     24  C   UNL     1      -2.174   7.982  -1.757  1.00  0.00     0.004 A 
ATOM     25  C   UNL     1      -1.043   7.091  -3.695  1.00  0.00     0.004 A 
ATOM     26  C   UNL     1      -0.996   7.744  -2.463  1.00  0.00     0.000 A 
ENDBRANCH  20  21
ENDBRANCH  17  20
ENDBRANCH   1  14
TORSDOF 7
ENDMDL
MODEL 5
REMARK VINA RESULT:    -5.977     13.960     17.457
REMARK INTER + INTRA:         -11.603
REMARK INTER:                 -10.529
REMARK INTRA:                  -1.074
REMARK UNBOUND:                -3.181
REMARK SMILES CC1(C)[C@H](C=C(Cl)Cl)[C@H]1C(=O)OCc1cccc(Oc2ccccc2)c1
REMARK SMILES IDX 13 1 12 2 10 3 11 4 9 5 4 6 2 7 1 8 3 9 5 10 7 11 6 12 8 13
REMARK SMILES IDX 14 14 26 15 15 16 18 17 16 18 17 19 19 20 20 21 21 22 25 23
REMARK SMILES IDX 22 24 24 25 23 26
REMARK H PARENT
REMARK Flexibility Score: inf
ROOT
ATOM      1  C   UNL     1       3.419  -4.609  10.098  1.00  0.00     0.268 C 
ENDROOT
BRANCH   1   2
ATOM      2  O   UNL     1       2.710  -5.748   9.627  1.00  0.00    -0.461 OA
BRANCH   2   3
ATOM      3  C   UNL     1       1.519  -5.494   9.012  1.00  0.00     0.310 C 
ATOM      4  O   UNL     1       0.604  -6.287   8.839  1.00  0.00    -0.252 OA
BRANCH   3   5
ATOM      5  C   UNL     1       1.427  -4.088   8.544  1.00  0.00     0.113 C 
ATOM      6  C   UNL     1       0.124  -3.610   7.985  1.00  0.00     0.035 C 
ATOM      7  C   UNL     1       1.310  -3.790   7.083  1.00  0.00    -0.014 C 
ATOM      8  C   UNL     1       1.945  -2.559   6.531  1.00  0.00     0.012 C 
ATOM      9  C   UNL     1       1.359  -4.950   6.147  1.00  0.00     0.012 C 
BRANCH   6  10
ATOM     10  C   UNL     1      -0.332  -2.275   8.345  1.00  0.00     0.011 C 
ATOM     11  Cl  UNL     1      -2.736  -3.094   9.245  1.00  0.00    -0.071 Cl
ATOM     12  C   UNL     1      -1.513  -1.931   8.882  1.00  0.00     0.103 C 
ATOM     13  Cl  UNL     1      -1.863  -0.274   9.235  1.00  0.00    -0.071 Cl
ENDBRANCH   6  10
ENDBRANCH   3   5
ENDBRANCH   2   3
ENDBRANCH   1   2
BRANCH   1  14
ATOM     14  C   UNL     1       4.885  -4.852   9.980  1.00  0.00    -0.007 A 
ATOM     15  C   UNL     1       5.351  -6.053   9.443  1.00  0.00     0.054 A 
ATOM     16  C   UNL     1       5.790  -3.879  10.404  1.00  0.00     0.007 A 
ATOM     17  C   UNL     1       6.723  -6.280   9.333  1.00  0.00     0.127 A 
ATOM     18  C   UNL     1       7.161  -4.107  10.294  1.00  0.00     0.004 A 
ATOM     19  C   UNL     1       7.628  -5.308   9.757  1.00  0.00     0.047 A 
BRANCH  17  20
ATOM     20  O   UNL     1       7.179  -7.451   8.809  1.00  0.00    -0.457 OA
BRANCH  20  21
ATOM     21  C   UNL     1       7.891  -7.393   7.624  1.00  0.00     0.127 A 
ATOM     22  C   UNL     1       7.317  -6.781   6.523  1.00  0.00     0.047 A 
ATOM     23  C   UNL     1       9.156  -7.948   7.569  1.00  0.00     0.047 A 
ATOM     24  C   UNL     1       8.034  -6.723   5.328  1.00  0.00     0.004 A 
ATOM     25  C   UNL     1       9.873  -7.889   6.373  1.00  0.00     0.004 A 
ATOM     26  C   UNL     1       9.312  -7.276   5.253  1.00  0.00     0.000 A 
ENDBRANCH  20  21
ENDBRANCH  17  20
ENDBRANCH   1  14
TORSDOF 7
ENDMDL
