MODEL 1
REMARK VINA RESULT:    -6.698      0.000      0.000
REMARK INTER + INTRA:         -11.546
REMARK INTER:                  -9.830
REMARK INTRA:                  -1.716
REMARK UNBOUND:                -1.716
REMARK SMILES CC1(C)C(C=C(Br)Br)C1C(=O)OC(C#N)c1cccc(Oc2ccccc2)c1
REMARK SMILES IDX 13 1 12 2 10 3 11 4 9 5 4 6 2 7 1 8 3 9 5 10 7 11 6 12 8 13
REMARK SMILES IDX 16 14 28 15 17 16 20 17 18 18 19 19 21 20 22 21 23 22 27 23
REMARK SMILES IDX 24 24 26 25 25 26 14 27 15 28
REMARK H PARENT
REMARK Flexibility Score: inf
ROOT
ATOM      1  C   UNL     1       1.606   3.757  -2.745  1.00  0.00     0.309 C
ENDROOT
BRANCH   1   2
ATOM      2  O   UNL     1       0.800   4.891  -3.095  1.00  0.00    -0.442 OA
BRANCH   2   3
ATOM      3  C   UNL     1       0.445   5.694  -2.057  1.00  0.00     0.311 C
ATOM      4  O   UNL     1       0.875   5.654  -0.913  1.00  0.00    -0.252 OA
BRANCH   3   5
ATOM      5  C   UNL     1      -0.580   6.688  -2.468  1.00  0.00     0.113 C
ATOM      6  C   UNL     1      -2.022   6.335  -2.292  1.00  0.00     0.035 C
ATOM      7  C   UNL     1      -1.433   6.431  -3.669  1.00  0.00    -0.014 C
ATOM      8  C   UNL     1      -1.264   5.158  -4.430  1.00  0.00     0.012 C
ATOM      9  C   UNL     1      -1.759   7.603  -4.533  1.00  0.00     0.012 C
BRANCH   6  10
ATOM     10  C   UNL     1      -2.351   5.039  -1.717  1.00  0.00     0.001 C
ATOM     11  Br  UNL     1      -5.039   5.059  -2.642  1.00  0.00    -0.043 Br
ATOM     12  C   UNL     1      -3.525   4.387  -1.770  1.00  0.00     0.057 C
ATOM     13  Br  UNL     1      -3.739   2.712  -0.955  1.00  0.00    -0.043 Br
ENDBRANCH   6  10
ENDBRANCH   3   5
ENDBRANCH   2   3
ENDBRANCH   1   2
BRANCH   1  14
ATOM     14  C   UNL     1       0.735   2.579  -2.471  1.00  0.00     0.011 A
ATOM     15  C   UNL     1       0.093   1.926  -3.524  1.00  0.00     0.055 A
ATOM     16  C   UNL     1       0.563   2.129  -1.162  1.00  0.00     0.009 A
ATOM     17  C   UNL     1      -0.722   0.823  -3.267  1.00  0.00     0.127 A
ATOM     18  C   UNL     1      -0.252   1.026  -0.906  1.00  0.00     0.004 A
ATOM     19  C   UNL     1      -0.895   0.373  -1.958  1.00  0.00     0.047 A
BRANCH  17  20
ATOM     20  O   UNL     1      -1.349   0.186  -4.293  1.00  0.00    -0.457 OA
BRANCH  20  21
ATOM     21  C   UNL     1      -2.727   0.300  -4.375  1.00  0.00     0.127 A
ATOM     22  C   UNL     1      -3.504  -0.840  -4.286  1.00  0.00     0.047 A
ATOM     23  C   UNL     1      -3.291   1.553  -4.542  1.00  0.00     0.047 A
ATOM     24  C   UNL     1      -4.892  -0.726  -4.369  1.00  0.00     0.004 A
ATOM     25  C   UNL     1      -4.678   1.667  -4.626  1.00  0.00     0.004 A
ATOM     26  C   UNL     1      -5.479   0.529  -4.538  1.00  0.00     0.000 A
ENDBRANCH  20  21
ENDBRANCH  17  20
ENDBRANCH   1  14
BRANCH   1  27
ATOM     27  C   UNL     1       2.585   3.502  -3.821  1.00  0.00     0.113 C
ATOM     28  N   UNL     1       3.362   3.302  -4.659  1.00  0.00    -0.194 NA
ENDBRANCH   1  27
TORSDOF 8
ENDMDL
MODEL 2
REMARK VINA RESULT:    -6.594      3.508      6.548
REMARK INTER + INTRA:         -11.394
REMARK INTER:                 -10.141
REMARK INTRA:                  -1.253
REMARK UNBOUND:                -1.716
REMARK SMILES CC1(C)C(C=C(Br)Br)C1C(=O)OC(C#N)c1cccc(Oc2ccccc2)c1
REMARK SMILES IDX 13 1 12 2 10 3 11 4 9 5 4 6 2 7 1 8 3 9 5 10 7 11 6 12 8 13
REMARK SMILES IDX 16 14 28 15 17 16 20 17 18 18 19 19 21 20 22 21 23 22 27 23
REMARK SMILES IDX 24 24 26 25 25 26 14 27 15 28
REMARK H PARENT
REMARK Flexibility Score: inf
ROOT
ATOM      1  C   UNL     1      -4.709   1.431  -2.895  1.00  0.00     0.309 C
ENDROOT
BRANCH   1   2
ATOM      2  O   UNL     1      -3.386   1.684  -3.386  1.00  0.00    -0.442 OA
BRANCH   2   3
ATOM      3  C   UNL     1      -2.426   1.811  -2.431  1.00  0.00     0.311 C
ATOM      4  O   UNL     1      -1.836   0.908  -1.854  1.00  0.00    -0.252 OA
BRANCH   3   5
ATOM      5  C   UNL     1      -2.142   3.239  -2.134  1.00  0.00     0.113 C
ATOM      6  C   UNL     1      -1.119   3.557  -1.091  1.00  0.00     0.035 C
ATOM      7  C   UNL     1      -2.570   3.831  -0.830  1.00  0.00    -0.014 C
ATOM      8  C   UNL     1      -3.258   2.970   0.177  1.00  0.00     0.012 C
ATOM      9  C   UNL     1      -3.075   5.236  -0.857  1.00  0.00     0.012 C
BRANCH   6  10
ATOM     10  C   UNL     1      -0.443   2.454  -0.425  1.00  0.00     0.001 C
ATOM     11  Br  UNL     1       2.010   2.819  -1.814  1.00  0.00    -0.043 Br
ATOM     12  C   UNL     1       0.818   2.028  -0.606  1.00  0.00     0.057 C
ATOM     13  Br  UNL     1       1.497   0.574   0.364  1.00  0.00    -0.043 Br
ENDBRANCH   6  10
ENDBRANCH   3   5
ENDBRANCH   2   3
ENDBRANCH   1   2
BRANCH   1  14
ATOM     14  C   UNL     1      -5.486   2.701  -2.847  1.00  0.00     0.011 A
ATOM     15  C   UNL     1      -5.083   3.795  -3.615  1.00  0.00     0.055 A
ATOM     16  C   UNL     1      -6.617   2.797  -2.037  1.00  0.00     0.009 A
ATOM     17  C   UNL     1      -5.811   4.984  -3.571  1.00  0.00     0.127 A
ATOM     18  C   UNL     1      -7.344   3.987  -1.993  1.00  0.00     0.004 A
ATOM     19  C   UNL     1      -6.941   5.080  -2.760  1.00  0.00     0.047 A
BRANCH  17  20
ATOM     20  O   UNL     1      -5.418   6.051  -4.318  1.00  0.00    -0.457 OA
BRANCH  20  21
ATOM     21  C   UNL     1      -4.379   6.829  -3.833  1.00  0.00     0.127 A
ATOM     22  C   UNL     1      -3.091   6.583  -4.273  1.00  0.00     0.047 A
ATOM     23  C   UNL     1      -4.657   7.832  -2.921  1.00  0.00     0.047 A
ATOM     24  C   UNL     1      -2.044   7.366  -3.784  1.00  0.00     0.004 A
ATOM     25  C   UNL     1      -3.611   8.613  -2.432  1.00  0.00     0.004 A
ATOM     26  C   UNL     1      -2.305   8.382  -2.864  1.00  0.00     0.000 A
ENDBRANCH  20  21
ENDBRANCH  17  20
ENDBRANCH   1  14
BRANCH   1  27
ATOM     27  C   UNL     1      -5.354   0.401  -3.736  1.00  0.00     0.113 C
ATOM     28  N   UNL     1      -5.863  -0.413  -4.387  1.00  0.00    -0.194 NA
ENDBRANCH   1  27
TORSDOF 8
ENDMDL
MODEL 3
REMARK VINA RESULT:    -6.553      3.301      6.637
REMARK INTER + INTRA:         -11.333
REMARK INTER:                  -9.821
REMARK INTRA:                  -1.513
REMARK UNBOUND:                -1.716
REMARK SMILES CC1(C)C(C=C(Br)Br)C1C(=O)OC(C#N)c1cccc(Oc2ccccc2)c1
REMARK SMILES IDX 13 1 12 2 10 3 11 4 9 5 4 6 2 7 1 8 3 9 5 10 7 11 6 12 8 13
REMARK SMILES IDX 16 14 28 15 17 16 20 17 18 18 19 19 21 20 22 21 23 22 27 23
REMARK SMILES IDX 24 24 26 25 25 26 14 27 15 28
REMARK H PARENT
REMARK Flexibility Score: inf
ROOT
ATOM      1  C   UNL     1      -4.561   1.242  -2.827  1.00  0.00     0.309 C
ENDROOT
BRANCH   1   2
ATOM      2  O   UNL     1      -3.200   1.376  -3.259  1.00  0.00    -0.442 OA
BRANCH   2   3
ATOM      3  C   UNL     1      -2.269   0.856  -2.415  1.00  0.00     0.311 C
ATOM      4  O   UNL     1      -1.576  -0.134  -2.603  1.00  0.00    -0.252 OA
BRANCH   3   5
ATOM      5  C   UNL     1      -2.165   1.652  -1.165  1.00  0.00     0.113 C
ATOM      6  C   UNL     1      -1.304   2.874  -1.171  1.00  0.00     0.035 C
ATOM      7  C   UNL     1      -0.888   1.663  -0.389  1.00  0.00    -0.014 C
ATOM      8  C   UNL     1       0.286   0.892  -0.895  1.00  0.00     0.012 C
ATOM      9  C   UNL     1      -0.999   1.669   1.099  1.00  0.00     0.012 C
BRANCH   6  10
ATOM     10  C   UNL     1      -0.617   3.230  -2.404  1.00  0.00     0.001 C
ATOM     11  Br  UNL     1       0.345   5.716  -1.416  1.00  0.00    -0.043 Br
ATOM     12  C   UNL     1       0.092   4.341  -2.662  1.00  0.00     0.057 C
ATOM     13  Br  UNL     1       0.904   4.605  -4.332  1.00  0.00    -0.043 Br
ENDBRANCH   6  10
ENDBRANCH   3   5
ENDBRANCH   2   3
ENDBRANCH   1   2
BRANCH   1  14
ATOM     14  C   UNL     1      -5.244   2.566  -2.877  1.00  0.00     0.011 A
ATOM     15  C   UNL     1      -4.747   3.577  -3.702  1.00  0.00     0.055 A
ATOM     16  C   UNL     1      -6.380   2.794  -2.101  1.00  0.00     0.009 A
ATOM     17  C   UNL     1      -5.387   4.815  -3.748  1.00  0.00     0.127 A
ATOM     18  C   UNL     1      -7.019   4.034  -2.148  1.00  0.00     0.004 A
ATOM     19  C   UNL     1      -6.522   5.044  -2.971  1.00  0.00     0.047 A
BRANCH  17  20
ATOM     20  O   UNL     1      -4.902   5.802  -4.552  1.00  0.00    -0.457 OA
BRANCH  20  21
ATOM     21  C   UNL     1      -3.938   6.645  -4.025  1.00  0.00     0.127 A
ATOM     22  C   UNL     1      -4.291   7.527  -3.021  1.00  0.00     0.047 A
ATOM     23  C   UNL     1      -2.646   6.582  -4.517  1.00  0.00     0.047 A
ATOM     24  C   UNL     1      -3.320   8.377  -2.490  1.00  0.00     0.004 A
ATOM     25  C   UNL     1      -1.676   7.432  -3.987  1.00  0.00     0.004 A
ATOM     26  C   UNL     1      -2.012   8.329  -2.972  1.00  0.00     0.000 A
ENDBRANCH  20  21
ENDBRANCH  17  20
ENDBRANCH   1  14
BRANCH   1  27
ATOM     27  C   UNL     1      -5.238   0.222  -3.654  1.00  0.00     0.113 C
ATOM     28  N   UNL     1      -5.765  -0.575  -4.313  1.00  0.00    -0.194 NA
ENDBRANCH   1  27
TORSDOF 8
ENDMDL
MODEL 4
REMARK VINA RESULT:    -6.523      2.434      5.464
REMARK INTER + INTRA:         -11.289
REMARK INTER:                  -9.903
REMARK INTRA:                  -1.387
REMARK UNBOUND:                -1.716
REMARK SMILES CC1(C)C(C=C(Br)Br)C1C(=O)OC(C#N)c1cccc(Oc2ccccc2)c1
REMARK SMILES IDX 13 1 12 2 10 3 11 4 9 5 4 6 2 7 1 8 3 9 5 10 7 11 6 12 8 13
REMARK SMILES IDX 16 14 28 15 17 16 20 17 18 18 19 19 21 20 22 21 23 22 27 23
REMARK SMILES IDX 24 24 26 25 25 26 14 27 15 28
REMARK H PARENT
REMARK Flexibility Score: inf
ROOT
ATOM      1  C   UNL     1       1.059   3.343  -3.943  1.00  0.00     0.309 C
ENDROOT
BRANCH   1   2
ATOM      2  O   UNL     1       0.753   2.256  -3.058  1.00  0.00    -0.442 OA
BRANCH   2   3
ATOM      3  C   UNL     1      -0.551   1.873  -3.037  1.00  0.00     0.311 C
ATOM      4  O   UNL     1      -1.440   2.243  -3.791  1.00  0.00    -0.252 OA
BRANCH   3   5
ATOM      5  C   UNL     1      -0.813   0.901  -1.944  1.00  0.00     0.113 C
ATOM      6  C   UNL     1      -1.312   1.423  -0.635  1.00  0.00     0.035 C
ATOM      7  C   UNL     1       0.078   0.868  -0.743  1.00  0.00    -0.014 C
ATOM      8  C   UNL     1       1.210   1.835  -0.643  1.00  0.00     0.012 C
ATOM      9  C   UNL     1       0.386  -0.473  -0.165  1.00  0.00     0.012 C
BRANCH   6  10
ATOM     10  C   UNL     1      -1.527   2.856  -0.499  1.00  0.00     0.001 C
ATOM     11  Br  UNL     1      -4.207   2.774  -1.443  1.00  0.00    -0.043 Br
ATOM     12  C   UNL     1      -2.639   3.555  -0.783  1.00  0.00     0.057 C
ATOM     13  Br  UNL     1      -2.705   5.412  -0.532  1.00  0.00    -0.043 Br
ENDBRANCH   6  10
ENDBRANCH   3   5
ENDBRANCH   2   3
ENDBRANCH   1   2
BRANCH   1  14
ATOM     14  C   UNL     1       0.686   4.637  -3.306  1.00  0.00     0.011 A
ATOM     15  C   UNL     1      -0.140   5.536  -3.983  1.00  0.00     0.055 A
ATOM     16  C   UNL     1       1.160   4.951  -2.032  1.00  0.00     0.009 A
ATOM     17  C   UNL     1      -0.490   6.746  -3.386  1.00  0.00     0.127 A
ATOM     18  C   UNL     1       0.810   6.162  -1.437  1.00  0.00     0.004 A
ATOM     19  C   UNL     1      -0.015   7.061  -2.113  1.00  0.00     0.047 A
BRANCH  17  20
ATOM     20  O   UNL     1      -1.295   7.624  -4.047  1.00  0.00    -0.457 OA
BRANCH  20  21
ATOM     21  C   UNL     1      -2.606   7.743  -3.616  1.00  0.00     0.127 A
ATOM     22  C   UNL     1      -3.494   6.712  -3.866  1.00  0.00     0.047 A
ATOM     23  C   UNL     1      -2.994   8.890  -2.947  1.00  0.00     0.047 A
ATOM     24  C   UNL     1      -4.815   6.832  -3.433  1.00  0.00     0.004 A
ATOM     25  C   UNL     1      -4.315   9.010  -2.514  1.00  0.00     0.004 A
ATOM     26  C   UNL     1      -5.225   7.981  -2.756  1.00  0.00     0.000 A
ENDBRANCH  20  21
ENDBRANCH  17  20
ENDBRANCH   1  14
BRANCH   1  27
ATOM     27  C   UNL     1       2.488   3.283  -4.314  1.00  0.00     0.113 C
ATOM     28  N   UNL     1       3.612   3.238  -4.596  1.00  0.00    -0.194 NA
ENDBRANCH   1  27
TORSDOF 8
ENDMDL
MODEL 5
REMARK VINA RESULT:    -6.518      4.395      6.874
REMARK INTER + INTRA:         -11.283
REMARK INTER:                 -10.556
REMARK INTRA:                  -0.727
REMARK UNBOUND:                -1.716
REMARK SMILES CC1(C)C(C=C(Br)Br)C1C(=O)OC(C#N)c1cccc(Oc2ccccc2)c1
REMARK SMILES IDX 13 1 12 2 10 3 11 4 9 5 4 6 2 7 1 8 3 9 5 10 7 11 6 12 8 13
REMARK SMILES IDX 16 14 28 15 17 16 20 17 18 18 19 19 21 20 22 21 23 22 27 23
REMARK SMILES IDX 24 24 26 25 25 26 14 27 15 28
REMARK H PARENT
REMARK Flexibility Score: inf
ROOT
ATOM      1  C   UNL     1      -4.230   1.608  -2.395  1.00  0.00     0.309 C
ENDROOT
BRANCH   1   2
ATOM      2  O   UNL     1      -2.882   1.708  -2.873  1.00  0.00    -0.442 OA
BRANCH   2   3
ATOM      3  C   UNL     1      -1.943   1.108  -2.093  1.00  0.00     0.311 C
ATOM      4  O   UNL     1      -1.336   0.074  -2.334  1.00  0.00    -0.252 OA
BRANCH   3   5
ATOM      5  C   UNL     1      -1.708   1.875  -0.842  1.00  0.00     0.113 C
ATOM      6  C   UNL     1      -0.498   2.750  -0.763  1.00  0.00     0.035 C
ATOM      7  C   UNL     1      -0.578   1.500   0.064  1.00  0.00    -0.014 C
ATOM      8  C   UNL     1       0.323   0.372  -0.314  1.00  0.00     0.012 C
ATOM      9  C   UNL     1      -0.826   1.599   1.532  1.00  0.00     0.012 C
BRANCH   6  10
ATOM     10  C   UNL     1       0.384   2.817  -1.918  1.00  0.00     0.001 C
ATOM     11  Br  UNL     1      -0.259   5.515  -2.539  1.00  0.00    -0.043 Br
ATOM     12  C   UNL     1       0.592   3.860  -2.739  1.00  0.00     0.057 C
ATOM     13  Br  UNL     1       1.783   3.734  -4.182  1.00  0.00    -0.043 Br
ENDBRANCH   6  10
ENDBRANCH   3   5
ENDBRANCH   2   3
ENDBRANCH   1   2
BRANCH   1  14
ATOM     14  C   UNL     1      -4.896   2.940  -2.470  1.00  0.00     0.011 A
ATOM     15  C   UNL     1      -6.288   3.028  -2.417  1.00  0.00     0.055 A
ATOM     16  C   UNL     1      -4.128   4.098  -2.591  1.00  0.00     0.009 A
ATOM     17  C   UNL     1      -6.910   4.274  -2.487  1.00  0.00     0.127 A
ATOM     18  C   UNL     1      -4.751   5.344  -2.660  1.00  0.00     0.004 A
ATOM     19  C   UNL     1      -6.142   5.432  -2.609  1.00  0.00     0.047 A
BRANCH  17  20
ATOM     20  O   UNL     1      -8.268   4.362  -2.437  1.00  0.00    -0.457 OA
BRANCH  20  21
ATOM     21  C   UNL     1      -8.861   4.437  -1.187  1.00  0.00     0.127 A
ATOM     22  C   UNL     1      -8.704   5.587  -0.436  1.00  0.00     0.047 A
ATOM     23  C   UNL     1      -9.597   3.361  -0.724  1.00  0.00     0.047 A
ATOM     24  C   UNL     1      -9.302   5.664   0.823  1.00  0.00     0.004 A
ATOM     25  C   UNL     1     -10.193   3.437   0.534  1.00  0.00     0.004 A
ATOM     26  C   UNL     1     -10.047   4.589   1.307  1.00  0.00     0.000 A
ENDBRANCH  20  21
ENDBRANCH  17  20
ENDBRANCH   1  14
BRANCH   1  27
ATOM     27  C   UNL     1      -4.946   0.571  -3.164  1.00  0.00     0.113 C
ATOM     28  N   UNL     1      -5.513  -0.249  -3.760  1.00  0.00    -0.194 NA
ENDBRANCH   1  27
TORSDOF 8
ENDMDL
