MODEL 1
REMARK VINA RESULT:    -7.333      0.000      0.000
REMARK INTER + INTRA:         -11.888
REMARK INTER:                 -10.762
REMARK INTRA:                  -1.126
REMARK UNBOUND:                -1.126
REMARK SMILES CC1(C)C(C=C(Br)Br)C1C(=O)OC(C#N)c1cccc(Oc2ccccc2)c1
REMARK SMILES IDX 13 1 12 2 10 3 11 4 9 5 4 6 2 7 1 8 3 9 5 10 7 11 6 12 8 13
REMARK SMILES IDX 16 14 28 15 17 16 20 17 18 18 19 19 21 20 22 21 23 22 27 23
REMARK SMILES IDX 24 24 26 25 25 26 14 27 15 28
REMARK H PARENT
REMARK Flexibility Score: inf
ROOT
ATOM      1  C   UNL     1      -4.100   0.884  -4.132  1.00  0.00     0.309 C
ENDROOT
BRANCH   1   2
ATOM      2  O   UNL     1      -4.693   1.963  -3.397  1.00  0.00    -0.442 OA
BRANCH   2   3
ATOM      3  C   UNL     1      -4.563   3.193  -3.961  1.00  0.00     0.311 C
ATOM      4  O   UNL     1      -3.642   3.589  -4.662  1.00  0.00    -0.252 OA
BRANCH   3   5
ATOM      5  C   UNL     1      -5.717   4.068  -3.626  1.00  0.00     0.113 C
ATOM      6  C   UNL     1      -5.461   5.523  -3.398  1.00  0.00     0.035 C
ATOM      7  C   UNL     1      -5.849   4.637  -2.250  1.00  0.00    -0.014 C
ATOM      8  C   UNL     1      -4.801   4.342  -1.230  1.00  0.00     0.012 C
ATOM      9  C   UNL     1      -7.227   4.723  -1.682  1.00  0.00     0.012 C
BRANCH   6  10
ATOM     10  C   UNL     1      -4.098   6.014  -3.524  1.00  0.00     0.001 C
ATOM     11  Br  UNL     1      -4.749   8.682  -2.792  1.00  0.00    -0.043 Br
ATOM     12  C   UNL     1      -3.647   7.262  -3.315  1.00  0.00     0.057 C
ATOM     13  Br  UNL     1      -1.833   7.686  -3.535  1.00  0.00    -0.043 Br
ENDBRANCH   6  10
ENDBRANCH   3   5
ENDBRANCH   2   3
ENDBRANCH   1   2
BRANCH   1  14
ATOM     14  C   UNL     1      -2.909   0.365  -3.402  1.00  0.00     0.011 A
ATOM     15  C   UNL     1      -2.316   1.133  -2.399  1.00  0.00     0.055 A
ATOM     16  C   UNL     1      -2.388  -0.889  -3.720  1.00  0.00     0.009 A
ATOM     17  C   UNL     1      -1.202   0.646  -1.716  1.00  0.00     0.127 A
ATOM     18  C   UNL     1      -1.274  -1.375  -3.036  1.00  0.00     0.004 A
ATOM     19  C   UNL     1      -0.680  -0.607  -2.034  1.00  0.00     0.047 A
BRANCH  17  20
ATOM     20  O   UNL     1      -0.622   1.395  -0.738  1.00  0.00    -0.457 OA
BRANCH  20  21
ATOM     21  C   UNL     1      -0.279   2.701  -1.046  1.00  0.00     0.127 A
ATOM     22  C   UNL     1      -1.116   3.729  -0.652  1.00  0.00     0.047 A
ATOM     23  C   UNL     1       0.893   2.945  -1.740  1.00  0.00     0.047 A
ATOM     24  C   UNL     1      -0.771   5.045  -0.962  1.00  0.00     0.004 A
ATOM     25  C   UNL     1       1.237   4.259  -2.051  1.00  0.00     0.004 A
ATOM     26  C   UNL     1       0.406   5.310  -1.661  1.00  0.00     0.000 A
ENDBRANCH  20  21
ENDBRANCH  17  20
ENDBRANCH   1  14
BRANCH   1  27
ATOM     27  C   UNL     1      -5.117  -0.159  -4.376  1.00  0.00     0.113 C
ATOM     28  N   UNL     1      -5.909  -0.983  -4.575  1.00  0.00    -0.194 NA
ENDBRANCH   1  27
TORSDOF 8
ENDMDL
MODEL 2
REMARK VINA RESULT:    -7.166      3.070      5.982
REMARK INTER + INTRA:         -11.644
REMARK INTER:                  -9.626
REMARK INTRA:                  -2.018
REMARK UNBOUND:                -1.126
REMARK SMILES CC1(C)C(C=C(Br)Br)C1C(=O)OC(C#N)c1cccc(Oc2ccccc2)c1
REMARK SMILES IDX 13 1 12 2 10 3 11 4 9 5 4 6 2 7 1 8 3 9 5 10 7 11 6 12 8 13
REMARK SMILES IDX 16 14 28 15 17 16 20 17 18 18 19 19 21 20 22 21 23 22 27 23
REMARK SMILES IDX 24 24 26 25 25 26 14 27 15 28
REMARK H PARENT
REMARK Flexibility Score: inf
ROOT
ATOM      1  C   UNL     1       0.638   2.944  -3.829  1.00  0.00     0.309 C
ENDROOT
BRANCH   1   2
ATOM      2  O   UNL     1       0.109   1.889  -3.014  1.00  0.00    -0.442 OA
BRANCH   2   3
ATOM      3  C   UNL     1      -0.799   1.082  -3.625  1.00  0.00     0.311 C
ATOM      4  O   UNL     1      -0.661  -0.100  -3.909  1.00  0.00    -0.252 OA
BRANCH   3   5
ATOM      5  C   UNL     1      -2.053   1.815  -3.937  1.00  0.00     0.113 C
ATOM      6  C   UNL     1      -2.893   2.299  -2.799  1.00  0.00     0.035 C
ATOM      7  C   UNL     1      -3.379   1.178  -3.669  1.00  0.00    -0.014 C
ATOM      8  C   UNL     1      -3.429  -0.186  -3.064  1.00  0.00     0.012 C
ATOM      9  C   UNL     1      -4.463   1.429  -4.663  1.00  0.00     0.012 C
BRANCH   6  10
ATOM     10  C   UNL     1      -2.437   2.036  -1.442  1.00  0.00     0.001 C
ATOM     11  Br  UNL     1      -3.017   4.654  -0.498  1.00  0.00    -0.043 Br
ATOM     12  C   UNL     1      -2.421   2.883  -0.398  1.00  0.00     0.057 C
ATOM     13  Br  UNL     1      -1.787   2.337   1.281  1.00  0.00    -0.043 Br
ENDBRANCH   6  10
ENDBRANCH   3   5
ENDBRANCH   2   3
ENDBRANCH   1   2
BRANCH   1  14
ATOM     14  C   UNL     1       0.329   4.266  -3.214  1.00  0.00     0.011 A
ATOM     15  C   UNL     1      -0.431   5.202  -3.915  1.00  0.00     0.055 A
ATOM     16  C   UNL     1       0.799   4.566  -1.935  1.00  0.00     0.009 A
ATOM     17  C   UNL     1      -0.720   6.438  -3.338  1.00  0.00     0.127 A
ATOM     18  C   UNL     1       0.510   5.803  -1.359  1.00  0.00     0.004 A
ATOM     19  C   UNL     1      -0.249   6.739  -2.060  1.00  0.00     0.047 A
BRANCH  17  20
ATOM     20  O   UNL     1      -1.461   7.353  -4.022  1.00  0.00    -0.457 OA
BRANCH  20  21
ATOM     21  C   UNL     1      -2.772   7.549  -3.621  1.00  0.00     0.127 A
ATOM     22  C   UNL     1      -3.126   8.753  -3.040  1.00  0.00     0.047 A
ATOM     23  C   UNL     1      -3.694   6.535  -3.810  1.00  0.00     0.047 A
ATOM     24  C   UNL     1      -4.447   8.951  -2.635  1.00  0.00     0.004 A
ATOM     25  C   UNL     1      -5.013   6.732  -3.405  1.00  0.00     0.004 A
ATOM     26  C   UNL     1      -5.391   7.940  -2.818  1.00  0.00     0.000 A
ENDBRANCH  20  21
ENDBRANCH  17  20
ENDBRANCH   1  14
BRANCH   1  27
ATOM     27  C   UNL     1       2.087   2.732  -4.024  1.00  0.00     0.113 C
ATOM     28  N   UNL     1       3.223   2.555  -4.180  1.00  0.00    -0.194 NA
ENDBRANCH   1  27
TORSDOF 8
ENDMDL
MODEL 3
REMARK VINA RESULT:    -7.064      2.850      5.278
REMARK INTER + INTRA:         -11.494
REMARK INTER:                 -10.995
REMARK INTRA:                  -0.499
REMARK UNBOUND:                -1.126
REMARK SMILES CC1(C)C(C=C(Br)Br)C1C(=O)OC(C#N)c1cccc(Oc2ccccc2)c1
REMARK SMILES IDX 13 1 12 2 10 3 11 4 9 5 4 6 2 7 1 8 3 9 5 10 7 11 6 12 8 13
REMARK SMILES IDX 16 14 28 15 17 16 20 17 18 18 19 19 21 20 22 21 23 22 27 23
REMARK SMILES IDX 24 24 26 25 25 26 14 27 15 28
REMARK H PARENT
REMARK Flexibility Score: inf
ROOT
ATOM      1  C   UNL     1       0.774   3.480  -2.144  1.00  0.00     0.309 C
ENDROOT
BRANCH   1   2
ATOM      2  O   UNL     1      -0.400   4.140  -2.637  1.00  0.00    -0.442 OA
BRANCH   2   3
ATOM      3  C   UNL     1      -1.200   4.690  -1.684  1.00  0.00     0.311 C
ATOM      4  O   UNL     1      -2.101   4.137  -1.070  1.00  0.00    -0.252 OA
BRANCH   3   5
ATOM      5  C   UNL     1      -0.857   6.116  -1.446  1.00  0.00     0.113 C
ATOM      6  C   UNL     1      -1.924   7.144  -1.639  1.00  0.00     0.035 C
ATOM      7  C   UNL     1      -0.770   7.067  -2.596  1.00  0.00    -0.014 C
ATOM      8  C   UNL     1      -1.059   6.578  -3.976  1.00  0.00     0.012 C
ATOM      9  C   UNL     1       0.306   8.099  -2.542  1.00  0.00     0.012 C
BRANCH   6  10
ATOM     10  C   UNL     1      -3.249   6.699  -2.042  1.00  0.00     0.001 C
ATOM     11  Br  UNL     1      -4.175   9.306  -2.695  1.00  0.00    -0.043 Br
ATOM     12  C   UNL     1      -4.271   7.448  -2.491  1.00  0.00     0.057 C
ATOM     13  Br  UNL     1      -5.910   6.667  -2.960  1.00  0.00    -0.043 Br
ENDBRANCH   6  10
ENDBRANCH   3   5
ENDBRANCH   2   3
ENDBRANCH   1   2
BRANCH   1  14
ATOM     14  C   UNL     1       0.430   2.104  -1.686  1.00  0.00     0.011 A
ATOM     15  C   UNL     1      -0.316   1.260  -2.509  1.00  0.00     0.055 A
ATOM     16  C   UNL     1       0.856   1.660  -0.434  1.00  0.00     0.009 A
ATOM     17  C   UNL     1      -0.637  -0.027  -2.080  1.00  0.00     0.127 A
ATOM     18  C   UNL     1       0.534   0.372  -0.005  1.00  0.00     0.004 A
ATOM     19  C   UNL     1      -0.213  -0.472  -0.828  1.00  0.00     0.047 A
BRANCH  17  20
ATOM     20  O   UNL     1      -1.366  -0.851  -2.883  1.00  0.00    -0.457 OA
BRANCH  20  21
ATOM     21  C   UNL     1      -2.660  -0.467  -3.192  1.00  0.00     0.127 A
ATOM     22  C   UNL     1      -3.261  -0.978  -4.327  1.00  0.00     0.047 A
ATOM     23  C   UNL     1      -3.319   0.417  -2.356  1.00  0.00     0.047 A
ATOM     24  C   UNL     1      -4.565  -0.592  -4.639  1.00  0.00     0.004 A
ATOM     25  C   UNL     1      -4.622   0.804  -2.668  1.00  0.00     0.004 A
ATOM     26  C   UNL     1      -5.246   0.299  -3.809  1.00  0.00     0.000 A
ENDBRANCH  20  21
ENDBRANCH  17  20
ENDBRANCH   1  14
BRANCH   1  27
ATOM     27  C   UNL     1       1.815   3.486  -3.193  1.00  0.00     0.113 C
ATOM     28  N   UNL     1       2.633   3.480  -4.015  1.00  0.00    -0.194 NA
ENDBRANCH   1  27
TORSDOF 8
ENDMDL
MODEL 4
REMARK VINA RESULT:    -6.997      2.669      5.549
REMARK INTER + INTRA:         -11.396
REMARK INTER:                 -10.125
REMARK INTRA:                  -1.272
REMARK UNBOUND:                -1.126
REMARK SMILES CC1(C)C(C=C(Br)Br)C1C(=O)OC(C#N)c1cccc(Oc2ccccc2)c1
REMARK SMILES IDX 13 1 12 2 10 3 11 4 9 5 4 6 2 7 1 8 3 9 5 10 7 11 6 12 8 13
REMARK SMILES IDX 16 14 28 15 17 16 20 17 18 18 19 19 21 20 22 21 23 22 27 23
REMARK SMILES IDX 24 24 26 25 25 26 14 27 15 28
REMARK H PARENT
REMARK Flexibility Score: inf
ROOT
ATOM      1  C   UNL     1      -4.706   1.419  -2.906  1.00  0.00     0.309 C
ENDROOT
BRANCH   1   2
ATOM      2  O   UNL     1      -3.384   1.674  -3.400  1.00  0.00    -0.442 OA
BRANCH   2   3
ATOM      3  C   UNL     1      -2.423   1.806  -2.448  1.00  0.00     0.311 C
ATOM      4  O   UNL     1      -1.828   0.906  -1.871  1.00  0.00    -0.252 OA
BRANCH   3   5
ATOM      5  C   UNL     1      -2.144   3.236  -2.154  1.00  0.00     0.113 C
ATOM      6  C   UNL     1      -1.123   3.559  -1.111  1.00  0.00     0.035 C
ATOM      7  C   UNL     1      -2.576   3.830  -0.852  1.00  0.00    -0.014 C
ATOM      8  C   UNL     1      -3.263   2.969   0.156  1.00  0.00     0.012 C
ATOM      9  C   UNL     1      -3.085   5.232  -0.883  1.00  0.00     0.012 C
BRANCH   6  10
ATOM     10  C   UNL     1      -0.445   2.460  -0.441  1.00  0.00     0.001 C
ATOM     11  Br  UNL     1       2.009   2.830  -1.827  1.00  0.00    -0.043 Br
ATOM     12  C   UNL     1       0.818   2.038  -0.619  1.00  0.00     0.057 C
ATOM     13  Br  UNL     1       1.501   0.588   0.355  1.00  0.00    -0.043 Br
ENDBRANCH   6  10
ENDBRANCH   3   5
ENDBRANCH   2   3
ENDBRANCH   1   2
BRANCH   1  14
ATOM     14  C   UNL     1      -5.483   2.690  -2.852  1.00  0.00     0.011 A
ATOM     15  C   UNL     1      -5.092   3.781  -3.630  1.00  0.00     0.055 A
ATOM     16  C   UNL     1      -6.602   2.789  -2.026  1.00  0.00     0.009 A
ATOM     17  C   UNL     1      -5.819   4.969  -3.580  1.00  0.00     0.127 A
ATOM     18  C   UNL     1      -7.329   3.978  -1.976  1.00  0.00     0.004 A
ATOM     19  C   UNL     1      -6.938   5.068  -2.752  1.00  0.00     0.047 A
BRANCH  17  20
ATOM     20  O   UNL     1      -5.438   6.034  -4.337  1.00  0.00    -0.457 OA
BRANCH  20  21
ATOM     21  C   UNL     1      -4.390   6.812  -3.872  1.00  0.00     0.127 A
ATOM     22  C   UNL     1      -3.109   6.558  -4.326  1.00  0.00     0.047 A
ATOM     23  C   UNL     1      -4.652   7.823  -2.965  1.00  0.00     0.047 A
ATOM     24  C   UNL     1      -2.053   7.341  -3.858  1.00  0.00     0.004 A
ATOM     25  C   UNL     1      -3.598   8.605  -2.496  1.00  0.00     0.004 A
ATOM     26  C   UNL     1      -2.298   8.365  -2.943  1.00  0.00     0.000 A
ENDBRANCH  20  21
ENDBRANCH  17  20
ENDBRANCH   1  14
BRANCH   1  27
ATOM     27  C   UNL     1      -5.354   0.392  -3.748  1.00  0.00     0.113 C
ATOM     28  N   UNL     1      -5.871  -0.415  -4.402  1.00  0.00    -0.194 NA
ENDBRANCH   1  27
TORSDOF 8
ENDMDL
MODEL 5
REMARK VINA RESULT:    -6.967      1.979      5.202
REMARK INTER + INTRA:         -11.351
REMARK INTER:                  -9.841
REMARK INTRA:                  -1.511
REMARK UNBOUND:                -1.126
REMARK SMILES CC1(C)C(C=C(Br)Br)C1C(=O)OC(C#N)c1cccc(Oc2ccccc2)c1
REMARK SMILES IDX 13 1 12 2 10 3 11 4 9 5 4 6 2 7 1 8 3 9 5 10 7 11 6 12 8 13
REMARK SMILES IDX 16 14 28 15 17 16 20 17 18 18 19 19 21 20 22 21 23 22 27 23
REMARK SMILES IDX 24 24 26 25 25 26 14 27 15 28
REMARK H PARENT
REMARK Flexibility Score: inf
ROOT
ATOM      1  C   UNL     1      -4.500   1.217  -2.847  1.00  0.00     0.309 C
ENDROOT
BRANCH   1   2
ATOM      2  O   UNL     1      -3.138   1.355  -3.276  1.00  0.00    -0.442 OA
BRANCH   2   3
ATOM      3  C   UNL     1      -2.206   0.857  -2.419  1.00  0.00     0.311 C
ATOM      4  O   UNL     1      -1.489  -0.118  -2.595  1.00  0.00    -0.252 OA
BRANCH   3   5
ATOM      5  C   UNL     1      -2.136   1.660  -1.170  1.00  0.00     0.113 C
ATOM      6  C   UNL     1      -1.292   2.894  -1.167  1.00  0.00     0.035 C
ATOM      7  C   UNL     1      -0.872   1.693  -0.373  1.00  0.00    -0.014 C
ATOM      8  C   UNL     1       0.321   0.937  -0.856  1.00  0.00     0.012 C
ATOM      9  C   UNL     1      -1.008   1.703   1.114  1.00  0.00     0.012 C
BRANCH   6  10
ATOM     10  C   UNL     1      -0.589   3.255  -2.389  1.00  0.00     0.001 C
ATOM     11  Br  UNL     1       0.336   5.750  -1.388  1.00  0.00    -0.043 Br
ATOM     12  C   UNL     1       0.114   4.373  -2.637  1.00  0.00     0.057 C
ATOM     13  Br  UNL     1       0.950   4.642  -4.294  1.00  0.00    -0.043 Br
ENDBRANCH   6  10
ENDBRANCH   3   5
ENDBRANCH   2   3
ENDBRANCH   1   2
BRANCH   1  14
ATOM     14  C   UNL     1      -5.190   2.536  -2.914  1.00  0.00     0.011 A
ATOM     15  C   UNL     1      -4.683   3.549  -3.729  1.00  0.00     0.055 A
ATOM     16  C   UNL     1      -6.344   2.758  -2.163  1.00  0.00     0.009 A
ATOM     17  C   UNL     1      -5.329   4.783  -3.791  1.00  0.00     0.127 A
ATOM     18  C   UNL     1      -6.990   3.993  -2.226  1.00  0.00     0.004 A
ATOM     19  C   UNL     1      -6.483   5.005  -3.039  1.00  0.00     0.047 A
BRANCH  17  20
ATOM     20  O   UNL     1      -4.834   5.772  -4.585  1.00  0.00    -0.457 OA
BRANCH  20  21
ATOM     21  C   UNL     1      -3.903   6.635  -4.032  1.00  0.00     0.127 A
ATOM     22  C   UNL     1      -4.303   7.514  -3.042  1.00  0.00     0.047 A
ATOM     23  C   UNL     1      -2.596   6.597  -4.485  1.00  0.00     0.047 A
ATOM     24  C   UNL     1      -3.366   8.384  -2.485  1.00  0.00     0.004 A
ATOM     25  C   UNL     1      -1.659   7.467  -3.929  1.00  0.00     0.004 A
ATOM     26  C   UNL     1      -2.043   8.360  -2.928  1.00  0.00     0.000 A
ENDBRANCH  20  21
ENDBRANCH  17  20
ENDBRANCH   1  14
BRANCH   1  27
ATOM     27  C   UNL     1      -5.168   0.184  -3.666  1.00  0.00     0.113 C
ATOM     28  N   UNL     1      -5.701  -0.628  -4.301  1.00  0.00    -0.194 NA
ENDBRANCH   1  27
TORSDOF 8
ENDMDL
