MODEL 1
REMARK VINA RESULT:    -6.359      0.000      0.000
REMARK INTER + INTRA:         -12.181
REMARK INTER:                  -8.961
REMARK INTRA:                  -3.219
REMARK UNBOUND:                -3.219
REMARK SMILES CC1(C)[C@H](C=C(Cl)Cl)[C@H]1C(=O)OCc1cccc(Oc2ccccc2)c1
REMARK SMILES IDX 13 1 12 2 10 3 11 4 9 5 4 6 2 7 1 8 3 9 5 10 7 11 6 12 8 13
REMARK SMILES IDX 14 14 26 15 15 16 18 17 16 18 17 19 19 20 20 21 21 22 25 23
REMARK SMILES IDX 22 24 24 25 23 26
REMARK H PARENT
REMARK Flexibility Score: inf
ROOT
ATOM      1  C   UNL     1       0.562   5.493  -3.912  1.00  0.00     0.268 C 
ENDROOT
BRANCH   1   2
ATOM      2  O   UNL     1       0.370   4.200  -3.352  1.00  0.00    -0.461 OA
BRANCH   2   3
ATOM      3  C   UNL     1       0.533   4.108  -2.001  1.00  0.00     0.310 C 
ATOM      4  O   UNL     1       1.302   4.764  -1.312  1.00  0.00    -0.252 OA
BRANCH   3   5
ATOM      5  C   UNL     1      -0.361   3.082  -1.405  1.00  0.00     0.113 C 
ATOM      6  C   UNL     1      -1.661   2.793  -2.086  1.00  0.00     0.035 C 
ATOM      7  C   UNL     1      -1.645   3.492  -0.758  1.00  0.00    -0.014 C 
ATOM      8  C   UNL     1      -2.147   2.732   0.424  1.00  0.00     0.012 C 
ATOM      9  C   UNL     1      -1.934   4.953  -0.685  1.00  0.00     0.012 C 
BRANCH   6  10
ATOM     10  C   UNL     1      -2.095   1.407  -2.184  1.00  0.00     0.011 C 
ATOM     11  Cl  UNL     1      -0.647   0.874  -4.393  1.00  0.00    -0.071 Cl
ATOM     12  C   UNL     1      -1.739   0.501  -3.108  1.00  0.00     0.103 C 
ATOM     13  Cl  UNL     1      -2.374  -1.106  -3.048  1.00  0.00    -0.071 Cl
ENDBRANCH   6  10
ENDBRANCH   3   5
ENDBRANCH   2   3
ENDBRANCH   1   2
BRANCH   1  14
ATOM     14  C   UNL     1      -0.693   6.286  -3.773  1.00  0.00    -0.007 A 
ATOM     15  C   UNL     1      -1.908   5.748  -4.200  1.00  0.00     0.054 A 
ATOM     16  C   UNL     1      -0.653   7.563  -3.214  1.00  0.00     0.007 A 
ATOM     17  C   UNL     1      -3.082   6.490  -4.069  1.00  0.00     0.127 A 
ATOM     18  C   UNL     1      -1.827   8.304  -3.083  1.00  0.00     0.004 A 
ATOM     19  C   UNL     1      -3.042   7.767  -3.511  1.00  0.00     0.047 A 
BRANCH  17  20
ATOM     20  O   UNL     1      -4.267   5.966  -4.487  1.00  0.00    -0.457 OA
BRANCH  20  21
ATOM     21  C   UNL     1      -4.691   4.785  -3.903  1.00  0.00     0.127 A 
ATOM     22  C   UNL     1      -4.693   3.624  -4.657  1.00  0.00     0.047 A 
ATOM     23  C   UNL     1      -5.101   4.794  -2.583  1.00  0.00     0.047 A 
ATOM     24  C   UNL     1      -5.119   2.434  -4.070  1.00  0.00     0.004 A 
ATOM     25  C   UNL     1      -5.528   3.602  -1.996  1.00  0.00     0.004 A 
ATOM     26  C   UNL     1      -5.536   2.422  -2.739  1.00  0.00     0.000 A 
ENDBRANCH  20  21
ENDBRANCH  17  20
ENDBRANCH   1  14
TORSDOF 7
ENDMDL
MODEL 2
REMARK VINA RESULT:    -6.237      3.108      5.562
REMARK INTER + INTRA:         -12.008
REMARK INTER:                 -10.597
REMARK INTRA:                  -1.411
REMARK UNBOUND:                -3.219
REMARK SMILES CC1(C)[C@H](C=C(Cl)Cl)[C@H]1C(=O)OCc1cccc(Oc2ccccc2)c1
REMARK SMILES IDX 13 1 12 2 10 3 11 4 9 5 4 6 2 7 1 8 3 9 5 10 7 11 6 12 8 13
REMARK SMILES IDX 14 14 26 15 15 16 18 17 16 18 17 19 19 20 20 21 21 22 25 23
REMARK SMILES IDX 22 24 24 25 23 26
REMARK H PARENT
REMARK Flexibility Score: inf
ROOT
ATOM      1  C   UNL     1       1.281   3.440  -2.068  1.00  0.00     0.268 C 
ENDROOT
BRANCH   1   2
ATOM      2  O   UNL     1       0.242   4.256  -2.593  1.00  0.00    -0.461 OA
BRANCH   2   3
ATOM      3  C   UNL     1      -0.191   5.263  -1.780  1.00  0.00     0.310 C 
ATOM      4  O   UNL     1       0.464   5.843  -0.926  1.00  0.00    -0.252 OA
BRANCH   3   5
ATOM      5  C   UNL     1      -1.611   5.612  -2.041  1.00  0.00     0.113 C 
ATOM      6  C   UNL     1      -2.333   6.447  -1.032  1.00  0.00     0.035 C 
ATOM      7  C   UNL     1      -2.697   5.003  -1.212  1.00  0.00    -0.014 C 
ATOM      8  C   UNL     1      -4.017   4.700  -1.838  1.00  0.00     0.012 C 
ATOM      9  C   UNL     1      -2.287   4.001  -0.185  1.00  0.00     0.012 C 
BRANCH   6  10
ATOM     10  C   UNL     1      -3.220   7.497  -1.514  1.00  0.00     0.011 C 
ATOM     11  Cl  UNL     1      -1.488   8.428  -3.356  1.00  0.00    -0.071 Cl
ATOM     12  C   UNL     1      -2.978   8.391  -2.484  1.00  0.00     0.103 C 
ATOM     13  Cl  UNL     1      -4.174   9.568  -2.906  1.00  0.00    -0.071 Cl
ENDBRANCH   6  10
ENDBRANCH   3   5
ENDBRANCH   2   3
ENDBRANCH   1   2
BRANCH   1  14
ATOM     14  C   UNL     1       0.712   2.131  -1.634  1.00  0.00    -0.007 A 
ATOM     15  C   UNL     1      -0.039   1.367  -2.527  1.00  0.00     0.054 A 
ATOM     16  C   UNL     1       0.933   1.670  -0.336  1.00  0.00     0.007 A 
ATOM     17  C   UNL     1      -0.570   0.143  -2.122  1.00  0.00     0.127 A 
ATOM     18  C   UNL     1       0.401   0.447   0.069  1.00  0.00     0.004 A 
ATOM     19  C   UNL     1      -0.350  -0.317  -0.824  1.00  0.00     0.047 A 
BRANCH  17  20
ATOM     20  O   UNL     1      -1.304  -0.603  -2.993  1.00  0.00    -0.457 OA
BRANCH  20  21
ATOM     21  C   UNL     1      -2.630  -0.254  -3.181  1.00  0.00     0.127 A 
ATOM     22  C   UNL     1      -3.173   0.766  -2.419  1.00  0.00     0.047 A 
ATOM     23  C   UNL     1      -3.378  -0.932  -4.125  1.00  0.00     0.047 A 
ATOM     24  C   UNL     1      -4.509   1.117  -2.609  1.00  0.00     0.004 A 
ATOM     25  C   UNL     1      -4.715  -0.580  -4.315  1.00  0.00     0.004 A 
ATOM     26  C   UNL     1      -5.280   0.445  -3.557  1.00  0.00     0.000 A 
ENDBRANCH  20  21
ENDBRANCH  17  20
ENDBRANCH   1  14
TORSDOF 7
ENDMDL
MODEL 3
REMARK VINA RESULT:    -6.236      2.234      4.523
REMARK INTER + INTRA:         -12.008
REMARK INTER:                  -9.831
REMARK INTRA:                  -2.176
REMARK UNBOUND:                -3.219
REMARK SMILES CC1(C)[C@H](C=C(Cl)Cl)[C@H]1C(=O)OCc1cccc(Oc2ccccc2)c1
REMARK SMILES IDX 13 1 12 2 10 3 11 4 9 5 4 6 2 7 1 8 3 9 5 10 7 11 6 12 8 13
REMARK SMILES IDX 14 14 26 15 15 16 18 17 16 18 17 19 19 20 20 21 21 22 25 23
REMARK SMILES IDX 22 24 24 25 23 26
REMARK H PARENT
REMARK Flexibility Score: inf
ROOT
ATOM      1  C   UNL     1      -4.470   1.967  -4.190  1.00  0.00     0.268 C 
ENDROOT
BRANCH   1   2
ATOM      2  O   UNL     1      -3.085   1.979  -3.870  1.00  0.00    -0.461 OA
BRANCH   2   3
ATOM      3  C   UNL     1      -2.757   1.510  -2.631  1.00  0.00     0.310 C 
ATOM      4  O   UNL     1      -3.267   0.560  -2.053  1.00  0.00    -0.252 OA
BRANCH   3   5
ATOM      5  C   UNL     1      -1.664   2.300  -2.011  1.00  0.00     0.113 C 
ATOM      6  C   UNL     1      -1.326   2.041  -0.577  1.00  0.00     0.035 C 
ATOM      7  C   UNL     1      -1.979   3.332  -0.976  1.00  0.00    -0.014 C 
ATOM      8  C   UNL     1      -1.153   4.572  -0.899  1.00  0.00     0.012 C 
ATOM      9  C   UNL     1      -3.419   3.563  -0.662  1.00  0.00     0.012 C 
BRANCH   6  10
ATOM     10  C   UNL     1       0.078   2.013  -0.194  1.00  0.00     0.011 C 
ATOM     11  Cl  UNL     1       0.264  -0.675  -0.217  1.00  0.00    -0.071 Cl
ATOM     12  C   UNL     1       0.855   0.934  -0.011  1.00  0.00     0.103 C 
ATOM     13  Cl  UNL     1       2.512   1.118   0.451  1.00  0.00    -0.071 Cl
ENDBRANCH   6  10
ENDBRANCH   3   5
ENDBRANCH   2   3
ENDBRANCH   1   2
BRANCH   1  14
ATOM     14  C   UNL     1      -5.118   3.193  -3.641  1.00  0.00    -0.007 A 
ATOM     15  C   UNL     1      -4.639   4.453  -3.998  1.00  0.00     0.054 A 
ATOM     16  C   UNL     1      -6.202   3.079  -2.771  1.00  0.00     0.007 A 
ATOM     17  C   UNL     1      -5.245   5.600  -3.484  1.00  0.00     0.127 A 
ATOM     18  C   UNL     1      -6.807   4.225  -2.257  1.00  0.00     0.004 A 
ATOM     19  C   UNL     1      -6.329   5.486  -2.614  1.00  0.00     0.047 A 
BRANCH  17  20
ATOM     20  O   UNL     1      -4.778   6.830  -3.832  1.00  0.00    -0.457 OA
BRANCH  20  21
ATOM     21  C   UNL     1      -3.564   7.232  -3.303  1.00  0.00     0.127 A 
ATOM     22  C   UNL     1      -2.436   7.198  -4.103  1.00  0.00     0.047 A 
ATOM     23  C   UNL     1      -3.509   7.657  -1.988  1.00  0.00     0.047 A 
ATOM     24  C   UNL     1      -1.213   7.603  -3.570  1.00  0.00     0.004 A 
ATOM     25  C   UNL     1      -2.285   8.063  -1.455  1.00  0.00     0.004 A 
ATOM     26  C   UNL     1      -1.137   8.036  -2.247  1.00  0.00     0.000 A 
ENDBRANCH  20  21
ENDBRANCH  17  20
ENDBRANCH   1  14
TORSDOF 7
ENDMDL
MODEL 4
REMARK VINA RESULT:    -6.172      2.846      6.081
REMARK INTER + INTRA:         -11.917
REMARK INTER:                  -9.190
REMARK INTRA:                  -2.726
REMARK UNBOUND:                -3.219
REMARK SMILES CC1(C)[C@H](C=C(Cl)Cl)[C@H]1C(=O)OCc1cccc(Oc2ccccc2)c1
REMARK SMILES IDX 13 1 12 2 10 3 11 4 9 5 4 6 2 7 1 8 3 9 5 10 7 11 6 12 8 13
REMARK SMILES IDX 14 14 26 15 15 16 18 17 16 18 17 19 19 20 20 21 21 22 25 23
REMARK SMILES IDX 22 24 24 25 23 26
REMARK H PARENT
REMARK Flexibility Score: inf
ROOT
ATOM      1  C   UNL     1      -5.122   3.101  -4.512  1.00  0.00     0.268 C 
ENDROOT
BRANCH   1   2
ATOM      2  O   UNL     1      -4.360   4.080  -3.817  1.00  0.00    -0.461 OA
BRANCH   2   3
ATOM      3  C   UNL     1      -4.808   4.408  -2.570  1.00  0.00     0.310 C 
ATOM      4  O   UNL     1      -5.942   4.252  -2.139  1.00  0.00    -0.252 OA
BRANCH   3   5
ATOM      5  C   UNL     1      -3.735   5.004  -1.735  1.00  0.00     0.113 C 
ATOM      6  C   UNL     1      -2.314   4.670  -2.063  1.00  0.00     0.035 C 
ATOM      7  C   UNL     1      -2.941   4.140  -0.807  1.00  0.00    -0.014 C 
ATOM      8  C   UNL     1      -2.462   4.702   0.489  1.00  0.00     0.012 C 
ATOM      9  C   UNL     1      -3.327   2.702  -0.720  1.00  0.00     0.012 C 
BRANCH   6  10
ATOM     10  C   UNL     1      -1.323   5.735  -2.000  1.00  0.00     0.011 C 
ATOM     11  Cl  UNL     1      -2.130   6.929  -4.276  1.00  0.00    -0.071 Cl
ATOM     12  C   UNL     1      -1.146   6.741  -2.869  1.00  0.00     0.103 C 
ATOM     13  Cl  UNL     1       0.100   7.911  -2.611  1.00  0.00    -0.071 Cl
ENDBRANCH   6  10
ENDBRANCH   3   5
ENDBRANCH   2   3
ENDBRANCH   1   2
BRANCH   1  14
ATOM     14  C   UNL     1      -4.458   1.772  -4.385  1.00  0.00    -0.007 A 
ATOM     15  C   UNL     1      -3.075   1.698  -4.214  1.00  0.00     0.054 A 
ATOM     16  C   UNL     1      -5.219   0.604  -4.436  1.00  0.00     0.007 A 
ATOM     17  C   UNL     1      -2.454   0.454  -4.095  1.00  0.00     0.127 A 
ATOM     18  C   UNL     1      -4.597  -0.638  -4.318  1.00  0.00     0.004 A 
ATOM     19  C   UNL     1      -3.215  -0.713  -4.147  1.00  0.00     0.047 A 
BRANCH  17  20
ATOM     20  O   UNL     1      -1.105   0.381  -3.929  1.00  0.00    -0.457 OA
BRANCH  20  21
ATOM     21  C   UNL     1      -0.591   0.698  -2.684  1.00  0.00     0.127 A 
ATOM     22  C   UNL     1      -0.058   1.959  -2.476  1.00  0.00     0.047 A 
ATOM     23  C   UNL     1      -0.622  -0.251  -1.679  1.00  0.00     0.047 A 
ATOM     24  C   UNL     1       0.459   2.278  -1.222  1.00  0.00     0.004 A 
ATOM     25  C   UNL     1      -0.104   0.070  -0.424  1.00  0.00     0.004 A 
ATOM     26  C   UNL     1       0.436   1.335  -0.195  1.00  0.00     0.000 A 
ENDBRANCH  20  21
ENDBRANCH  17  20
ENDBRANCH   1  14
TORSDOF 7
ENDMDL
MODEL 5
REMARK VINA RESULT:    -6.101     13.823     17.204
REMARK INTER + INTRA:         -11.817
REMARK INTER:                 -10.646
REMARK INTRA:                  -1.171
REMARK UNBOUND:                -3.219
REMARK SMILES CC1(C)[C@H](C=C(Cl)Cl)[C@H]1C(=O)OCc1cccc(Oc2ccccc2)c1
REMARK SMILES IDX 13 1 12 2 10 3 11 4 9 5 4 6 2 7 1 8 3 9 5 10 7 11 6 12 8 13
REMARK SMILES IDX 14 14 26 15 15 16 18 17 16 18 17 19 19 20 20 21 21 22 25 23
REMARK SMILES IDX 22 24 24 25 23 26
REMARK H PARENT
REMARK Flexibility Score: inf
ROOT
ATOM      1  C   UNL     1       3.402  -4.741  10.288  1.00  0.00     0.268 C 
ENDROOT
BRANCH   1   2
ATOM      2  O   UNL     1       2.700  -5.854   9.750  1.00  0.00    -0.461 OA
BRANCH   2   3
ATOM      3  C   UNL     1       1.539  -5.564   9.094  1.00  0.00     0.310 C 
ATOM      4  O   UNL     1       0.610  -6.331   8.883  1.00  0.00    -0.252 OA
BRANCH   3   5
ATOM      5  C   UNL     1       1.501  -4.152   8.636  1.00  0.00     0.113 C 
ATOM      6  C   UNL     1       0.260  -3.659   7.962  1.00  0.00     0.035 C 
ATOM      7  C   UNL     1       1.525  -3.839   7.173  1.00  0.00    -0.014 C 
ATOM      8  C   UNL     1       2.218  -2.607   6.697  1.00  0.00     0.012 C 
ATOM      9  C   UNL     1       1.655  -4.990   6.233  1.00  0.00     0.012 C 
BRANCH   6  10
ATOM     10  C   UNL     1      -0.219  -2.324   8.291  1.00  0.00     0.011 C 
ATOM     11  Cl  UNL     1      -2.607  -3.164   9.214  1.00  0.00    -0.071 Cl
ATOM     12  C   UNL     1      -1.405  -1.988   8.822  1.00  0.00     0.103 C 
ATOM     13  Cl  UNL     1      -1.784  -0.331   9.137  1.00  0.00    -0.071 Cl
ENDBRANCH   6  10
ENDBRANCH   3   5
ENDBRANCH   2   3
ENDBRANCH   1   2
BRANCH   1  14
ATOM     14  C   UNL     1       4.869  -4.946  10.112  1.00  0.00    -0.007 A 
ATOM     15  C   UNL     1       5.345  -6.136   9.561  1.00  0.00     0.054 A 
ATOM     16  C   UNL     1       5.763  -3.947  10.497  1.00  0.00     0.007 A 
ATOM     17  C   UNL     1       6.717  -6.327   9.396  1.00  0.00     0.127 A 
ATOM     18  C   UNL     1       7.135  -4.139  10.332  1.00  0.00     0.004 A 
ATOM     19  C   UNL     1       7.611  -5.329   9.781  1.00  0.00     0.047 A 
BRANCH  17  20
ATOM     20  O   UNL     1       7.182  -7.488   8.859  1.00  0.00    -0.457 OA
BRANCH  20  21
ATOM     21  C   UNL     1       7.877  -7.412   7.664  1.00  0.00     0.127 A 
ATOM     22  C   UNL     1       7.280  -6.800   6.576  1.00  0.00     0.047 A 
ATOM     23  C   UNL     1       9.148  -7.949   7.588  1.00  0.00     0.047 A 
ATOM     24  C   UNL     1       7.979  -6.724   5.372  1.00  0.00     0.004 A 
ATOM     25  C   UNL     1       9.848  -7.872   6.383  1.00  0.00     0.004 A 
ATOM     26  C   UNL     1       9.263  -7.259   5.276  1.00  0.00     0.000 A 
ENDBRANCH  20  21
ENDBRANCH  17  20
ENDBRANCH   1  14
TORSDOF 7
ENDMDL
