MODEL 1
REMARK VINA RESULT:    -6.169      0.000      0.000
REMARK INTER + INTRA:          -7.651
REMARK INTER:                  -7.251
REMARK INTRA:                  -0.400
REMARK UNBOUND:                -0.400
REMARK SMILES Clc1ccc(C(c2ccc(Cl)cc2)C(Cl)(Cl)Cl)cc1
REMARK SMILES IDX 6 1 14 2 15 3 16 4 17 5 5 6 4 7 18 8 3 9 19 10 2 11 1 12
REMARK SMILES IDX 7 13 8 14 13 15 9 16 12 17 10 18 11 19
REMARK H PARENT
REMARK Flexibility Score: inf
ROOT
ATOM      1  C   UNL     1       0.058   1.341  -1.348  1.00  0.00     0.101 C 
ENDROOT
BRANCH   1   2
ATOM      2  C   UNL     1       0.382   0.772   0.096  1.00  0.00     0.201 C 
ATOM      3  Cl  UNL     1      -0.675   1.413   1.396  1.00  0.00    -0.083 Cl
ATOM      4  Cl  UNL     1       2.079   1.224   0.552  1.00  0.00    -0.083 Cl
ATOM      5  Cl  UNL     1       0.317  -1.030   0.152  1.00  0.00    -0.083 Cl
ENDBRANCH   1   2
BRANCH   1   6
ATOM      6  C   UNL     1       0.151   2.822  -1.495  1.00  0.00    -0.036 A 
ATOM      7  C   UNL     1      -0.777   3.645  -0.858  1.00  0.00     0.006 A 
ATOM      8  C   UNL     1       1.165   3.384  -2.271  1.00  0.00     0.006 A 
ATOM      9  C   UNL     1      -0.690   5.031  -0.996  1.00  0.00     0.021 A 
ATOM     10  C   UNL     1       1.252   4.769  -2.409  1.00  0.00     0.021 A 
ATOM     11  C   UNL     1       0.324   5.593  -1.771  1.00  0.00     0.041 A 
ATOM     12  Cl  UNL     1       0.431   7.302  -1.942  1.00  0.00    -0.084 Cl
ENDBRANCH   1   6
BRANCH   1  13
ATOM     13  C   UNL     1      -1.183   0.745  -2.060  1.00  0.00    -0.036 A 
ATOM     14  C   UNL     1      -0.986  -0.290  -2.931  1.00  0.00     0.006 A 
ATOM     15  C   UNL     1      -2.405   1.289  -1.776  1.00  0.00     0.006 A 
ATOM     16  C   UNL     1      -2.103  -0.824  -3.571  1.00  0.00     0.021 A 
ATOM     17  C   UNL     1      -3.522   0.754  -2.418  1.00  0.00     0.021 A 
ATOM     18  C   UNL     1      -3.371  -0.303  -3.315  1.00  0.00     0.041 A 
ATOM     19  Cl  UNL     1      -4.750  -0.962  -4.107  1.00  0.00    -0.084 Cl
ENDBRANCH   1  13
TORSDOF 3
ENDMDL
MODEL 2
REMARK VINA RESULT:    -6.116      2.211      4.636
REMARK INTER + INTRA:          -7.589
REMARK INTER:                  -6.983
REMARK INTRA:                  -0.607
REMARK UNBOUND:                -0.400
REMARK SMILES Clc1ccc(C(c2ccc(Cl)cc2)C(Cl)(Cl)Cl)cc1
REMARK SMILES IDX 6 1 14 2 15 3 16 4 17 5 5 6 4 7 18 8 3 9 19 10 2 11 1 12
REMARK SMILES IDX 7 13 8 14 13 15 9 16 12 17 10 18 11 19
REMARK H PARENT
REMARK Flexibility Score: inf
ROOT
ATOM      1  C   UNL     1      -1.373   1.924  -1.293  1.00  0.00     0.101 C 
ENDROOT
BRANCH   1   2
ATOM      2  C   UNL     1      -1.793   1.031  -2.534  1.00  0.00     0.201 C 
ATOM      3  Cl  UNL     1      -3.564   0.914  -2.793  1.00  0.00    -0.083 Cl
ATOM      4  Cl  UNL     1      -1.202  -0.666  -2.281  1.00  0.00    -0.083 Cl
ATOM      5  Cl  UNL     1      -1.033   1.596  -4.071  1.00  0.00    -0.083 Cl
ENDBRANCH   1   2
BRANCH   1   6
ATOM      6  C   UNL     1      -1.823   3.345  -1.337  1.00  0.00    -0.036 A 
ATOM      7  C   UNL     1      -2.126   4.018  -0.154  1.00  0.00     0.006 A 
ATOM      8  C   UNL     1      -1.943   4.001  -2.563  1.00  0.00     0.006 A 
ATOM      9  C   UNL     1      -2.549   5.347  -0.195  1.00  0.00     0.021 A 
ATOM     10  C   UNL     1      -2.365   5.330  -2.605  1.00  0.00     0.021 A 
ATOM     11  C   UNL     1      -2.668   6.002  -1.421  1.00  0.00     0.041 A 
ATOM     12  Cl  UNL     1      -3.190   7.642  -1.473  1.00  0.00    -0.084 Cl
ENDBRANCH   1   6
BRANCH   1  13
ATOM     13  C   UNL     1       0.089   1.774  -0.801  1.00  0.00    -0.036 A 
ATOM     14  C   UNL     1       1.078   2.350  -1.548  1.00  0.00     0.006 A 
ATOM     15  C   UNL     1       0.307   1.072   0.352  1.00  0.00     0.006 A 
ATOM     16  C   UNL     1       2.393   2.213  -1.106  1.00  0.00     0.021 A 
ATOM     17  C   UNL     1       1.623   0.934   0.793  1.00  0.00     0.021 A 
ATOM     18  C   UNL     1       2.666   1.505   0.065  1.00  0.00     0.041 A 
ATOM     19  Cl  UNL     1       4.290   1.335   0.611  1.00  0.00    -0.084 Cl
ENDBRANCH   1  13
TORSDOF 3
ENDMDL
MODEL 3
REMARK VINA RESULT:    -6.105      0.259      1.581
REMARK INTER + INTRA:          -7.576
REMARK INTER:                  -7.069
REMARK INTRA:                  -0.507
REMARK UNBOUND:                -0.400
REMARK SMILES Clc1ccc(C(c2ccc(Cl)cc2)C(Cl)(Cl)Cl)cc1
REMARK SMILES IDX 6 1 14 2 15 3 16 4 17 5 5 6 4 7 18 8 3 9 19 10 2 11 1 12
REMARK SMILES IDX 7 13 8 14 13 15 9 16 12 17 10 18 11 19
REMARK H PARENT
REMARK Flexibility Score: inf
ROOT
ATOM      1  C   UNL     1      -0.020   1.462  -1.549  1.00  0.00     0.101 C 
ENDROOT
BRANCH   1   2
ATOM      2  C   UNL     1       0.352   0.866  -0.127  1.00  0.00     0.201 C 
ATOM      3  Cl  UNL     1      -0.628   1.517   1.226  1.00  0.00    -0.083 Cl
ATOM      4  Cl  UNL     1       2.080   1.265   0.257  1.00  0.00    -0.083 Cl
ATOM      5  Cl  UNL     1       0.240  -0.935  -0.091  1.00  0.00    -0.083 Cl
ENDBRANCH   1   2
BRANCH   1   6
ATOM      6  C   UNL     1       0.047   2.947  -1.664  1.00  0.00    -0.036 A 
ATOM      7  C   UNL     1       0.970   3.538  -2.527  1.00  0.00     0.006 A 
ATOM      8  C   UNL     1      -0.811   3.746  -0.907  1.00  0.00     0.006 A 
ATOM      9  C   UNL     1       1.034   4.928  -2.634  1.00  0.00     0.021 A 
ATOM     10  C   UNL     1      -0.748   5.135  -1.014  1.00  0.00     0.021 A 
ATOM     11  C   UNL     1       0.175   5.726  -1.877  1.00  0.00     0.041 A 
ATOM     12  Cl  UNL     1       0.254   7.441  -2.008  1.00  0.00    -0.084 Cl
ENDBRANCH   1   6
BRANCH   1  13
ATOM     13  C   UNL     1      -1.272   0.864  -2.240  1.00  0.00    -0.036 A 
ATOM     14  C   UNL     1      -2.501   1.260  -1.792  1.00  0.00     0.006 A 
ATOM     15  C   UNL     1      -1.075  -0.029  -3.256  1.00  0.00     0.006 A 
ATOM     16  C   UNL     1      -3.626   0.720  -2.413  1.00  0.00     0.021 A 
ATOM     17  C   UNL     1      -2.202  -0.569  -3.877  1.00  0.00     0.021 A 
ATOM     18  C   UNL     1      -3.477  -0.194  -3.456  1.00  0.00     0.041 A 
ATOM     19  Cl  UNL     1      -4.867  -0.862  -4.222  1.00  0.00    -0.084 Cl
ENDBRANCH   1  13
TORSDOF 3
ENDMDL
MODEL 4
REMARK VINA RESULT:    -6.099      2.219      4.700
REMARK INTER + INTRA:          -7.568
REMARK INTER:                  -6.951
REMARK INTRA:                  -0.617
REMARK UNBOUND:                -0.400
REMARK SMILES Clc1ccc(C(c2ccc(Cl)cc2)C(Cl)(Cl)Cl)cc1
REMARK SMILES IDX 6 1 14 2 15 3 16 4 17 5 5 6 4 7 18 8 3 9 19 10 2 11 1 12
REMARK SMILES IDX 7 13 8 14 13 15 9 16 12 17 10 18 11 19
REMARK H PARENT
REMARK Flexibility Score: inf
ROOT
ATOM      1  C   UNL     1      -1.383   1.962  -1.321  1.00  0.00     0.101 C 
ENDROOT
BRANCH   1   2
ATOM      2  C   UNL     1      -1.810   1.084  -2.570  1.00  0.00     0.201 C 
ATOM      3  Cl  UNL     1      -1.163   1.666  -4.138  1.00  0.00    -0.083 Cl
ATOM      4  Cl  UNL     1      -3.618   1.104  -2.727  1.00  0.00    -0.083 Cl
ATOM      5  Cl  UNL     1      -1.350  -0.650  -2.377  1.00  0.00    -0.083 Cl
ENDBRANCH   1   2
BRANCH   1   6
ATOM      6  C   UNL     1      -1.822   3.387  -1.352  1.00  0.00    -0.036 A 
ATOM      7  C   UNL     1      -2.154   4.040  -0.166  1.00  0.00     0.006 A 
ATOM      8  C   UNL     1      -1.904   4.066  -2.568  1.00  0.00     0.006 A 
ATOM      9  C   UNL     1      -2.566   5.373  -0.195  1.00  0.00     0.021 A 
ATOM     10  C   UNL     1      -2.315   5.398  -2.598  1.00  0.00     0.021 A 
ATOM     11  C   UNL     1      -2.647   6.051  -1.411  1.00  0.00     0.041 A 
ATOM     12  Cl  UNL     1      -3.156   7.695  -1.447  1.00  0.00    -0.084 Cl
ENDBRANCH   1   6
BRANCH   1  13
ATOM     13  C   UNL     1       0.078   1.796  -0.831  1.00  0.00    -0.036 A 
ATOM     14  C   UNL     1       0.293   1.072   0.307  1.00  0.00     0.006 A 
ATOM     15  C   UNL     1       1.069   2.385  -1.566  1.00  0.00     0.006 A 
ATOM     16  C   UNL     1       1.608   0.924   0.748  1.00  0.00     0.021 A 
ATOM     17  C   UNL     1       2.384   2.238  -1.125  1.00  0.00     0.021 A 
ATOM     18  C   UNL     1       2.654   1.507   0.032  1.00  0.00     0.041 A 
ATOM     19  Cl  UNL     1       4.277   1.325   0.576  1.00  0.00    -0.084 Cl
ENDBRANCH   1  13
TORSDOF 3
ENDMDL
MODEL 5
REMARK VINA RESULT:    -5.997      3.826      5.956
REMARK INTER + INTRA:          -7.449
REMARK INTER:                  -7.114
REMARK INTRA:                  -0.335
REMARK UNBOUND:                -0.400
REMARK SMILES Clc1ccc(C(c2ccc(Cl)cc2)C(Cl)(Cl)Cl)cc1
REMARK SMILES IDX 6 1 14 2 15 3 16 4 17 5 5 6 4 7 18 8 3 9 19 10 2 11 1 12
REMARK SMILES IDX 7 13 8 14 13 15 9 16 12 17 10 18 11 19
REMARK H PARENT
REMARK Flexibility Score: inf
ROOT
ATOM      1  C   UNL     1      -4.718   4.183  -1.721  1.00  0.00     0.101 C 
ENDROOT
BRANCH   1   2
ATOM      2  C   UNL     1      -5.650   3.336  -2.684  1.00  0.00     0.201 C 
ATOM      3  Cl  UNL     1      -5.491   3.754  -4.421  1.00  0.00    -0.083 Cl
ATOM      4  Cl  UNL     1      -7.387   3.629  -2.248  1.00  0.00    -0.083 Cl
ATOM      5  Cl  UNL     1      -5.386   1.560  -2.503  1.00  0.00    -0.083 Cl
ENDBRANCH   1   2
BRANCH   1   6
ATOM      6  C   UNL     1      -4.586   5.630  -2.057  1.00  0.00    -0.036 A 
ATOM      7  C   UNL     1      -3.395   6.303  -1.789  1.00  0.00     0.006 A 
ATOM      8  C   UNL     1      -5.656   6.312  -2.639  1.00  0.00     0.006 A 
ATOM      9  C   UNL     1      -3.272   7.657  -2.102  1.00  0.00     0.021 A 
ATOM     10  C   UNL     1      -5.533   7.665  -2.953  1.00  0.00     0.021 A 
ATOM     11  C   UNL     1      -4.342   8.337  -2.685  1.00  0.00     0.041 A 
ATOM     12  Cl  UNL     1      -4.191  10.008  -3.071  1.00  0.00    -0.084 Cl
ENDBRANCH   1   6
BRANCH   1  13
ATOM     13  C   UNL     1      -3.367   3.535  -1.326  1.00  0.00    -0.036 A 
ATOM     14  C   UNL     1      -3.176   3.203  -0.014  1.00  0.00     0.006 A 
ATOM     15  C   UNL     1      -2.443   3.332  -2.312  1.00  0.00     0.006 A 
ATOM     16  C   UNL     1      -1.959   2.621   0.341  1.00  0.00     0.021 A 
ATOM     17  C   UNL     1      -1.226   2.751  -1.956  1.00  0.00     0.021 A 
ATOM     18  C   UNL     1      -0.984   2.394  -0.630  1.00  0.00     0.041 A 
ATOM     19  Cl  UNL     1       0.517   1.676  -0.191  1.00  0.00    -0.084 Cl
ENDBRANCH   1  13
TORSDOF 3
ENDMDL
