MODEL 1
REMARK VINA RESULT:    -6.573      0.000      0.000
REMARK INTER + INTRA:         -11.610
REMARK INTER:                  -9.647
REMARK INTRA:                  -1.963
REMARK UNBOUND:                -1.963
REMARK SMILES CC1(C)C(C=C(Br)Br)C1C(=O)OC(C#N)c1cccc(Oc2ccccc2)c1
REMARK SMILES IDX 13 1 12 2 10 3 11 4 9 5 4 6 2 7 1 8 3 9 5 10 7 11 6 12 8 13
REMARK SMILES IDX 16 14 28 15 17 16 20 17 18 18 19 19 21 20 22 21 23 22 27 23
REMARK SMILES IDX 24 24 26 25 25 26 14 27 15 28
REMARK H PARENT
REMARK Flexibility Score: inf
ROOT
ATOM      1  C   UNL     1       0.535   2.830  -4.023  1.00  0.00     0.309 C
ENDROOT
BRANCH   1   2
ATOM      2  O   UNL     1       0.081   1.749  -3.197  1.00  0.00    -0.442 OA
BRANCH   2   3
ATOM      3  C   UNL     1      -0.940   1.013  -3.712  1.00  0.00     0.311 C
ATOM      4  O   UNL     1      -0.936  -0.185  -3.957  1.00  0.00    -0.252 OA
BRANCH   3   5
ATOM      5  C   UNL     1      -2.138   1.855  -3.968  1.00  0.00     0.113 C
ATOM      6  C   UNL     1      -2.908   2.368  -2.794  1.00  0.00     0.035 C
ATOM      7  C   UNL     1      -3.504   1.318  -3.684  1.00  0.00    -0.014 C
ATOM      8  C   UNL     1      -3.650  -0.056  -3.118  1.00  0.00     0.012 C
ATOM      9  C   UNL     1      -4.590   1.686  -4.640  1.00  0.00     0.012 C
BRANCH   6  10
ATOM     10  C   UNL     1      -2.442   2.027  -1.458  1.00  0.00     0.001 C
ATOM     11  Br  UNL     1      -3.006   4.589  -0.362  1.00  0.00    -0.043 Br
ATOM     12  C   UNL     1      -2.415   2.812  -0.368  1.00  0.00     0.057 C
ATOM     13  Br  UNL     1      -1.768   2.170   1.271  1.00  0.00    -0.043 Br
ENDBRANCH   6  10
ENDBRANCH   3   5
ENDBRANCH   2   3
ENDBRANCH   1   2
BRANCH   1  14
ATOM     14  C   UNL     1       0.292   4.130  -3.336  1.00  0.00     0.011 A
ATOM     15  C   UNL     1      -0.428   5.137  -3.982  1.00  0.00     0.055 A
ATOM     16  C   UNL     1       0.782   4.341  -2.047  1.00  0.00     0.009 A
ATOM     17  C   UNL     1      -0.655   6.353  -3.339  1.00  0.00     0.127 A
ATOM     18  C   UNL     1       0.554   5.558  -1.405  1.00  0.00     0.004 A
ATOM     19  C   UNL     1      -0.164   6.564  -2.051  1.00  0.00     0.047 A
BRANCH  17  20
ATOM     20  O   UNL     1      -1.356   7.336  -3.969  1.00  0.00    -0.457 OA
BRANCH  20  21
ATOM     21  C   UNL     1      -2.662   7.557  -3.561  1.00  0.00     0.127 A
ATOM     22  C   UNL     1      -3.581   6.529  -3.660  1.00  0.00     0.047 A
ATOM     23  C   UNL     1      -3.012   8.800  -3.067  1.00  0.00     0.047 A
ATOM     24  C   UNL     1      -4.896   6.751  -3.250  1.00  0.00     0.004 A
ATOM     25  C   UNL     1      -4.327   9.023  -2.658  1.00  0.00     0.004 A
ATOM     26  C   UNL     1      -5.269   7.998  -2.748  1.00  0.00     0.000 A
ENDBRANCH  20  21
ENDBRANCH  17  20
ENDBRANCH   1  14
BRANCH   1  27
ATOM     27  C   UNL     1       1.958   2.623  -4.360  1.00  0.00     0.113 C
ATOM     28  N   UNL     1       3.075   2.469  -4.633  1.00  0.00    -0.194 NA
ENDBRANCH   1  27
TORSDOF 8
ENDMDL
MODEL 2
REMARK VINA RESULT:    -6.477      1.948      5.260
REMARK INTER + INTRA:         -11.469
REMARK INTER:                  -9.775
REMARK INTRA:                  -1.693
REMARK UNBOUND:                -1.963
REMARK SMILES CC1(C)C(C=C(Br)Br)C1C(=O)OC(C#N)c1cccc(Oc2ccccc2)c1
REMARK SMILES IDX 13 1 12 2 10 3 11 4 9 5 4 6 2 7 1 8 3 9 5 10 7 11 6 12 8 13
REMARK SMILES IDX 16 14 28 15 17 16 20 17 18 18 19 19 21 20 22 21 23 22 27 23
REMARK SMILES IDX 24 24 26 25 25 26 14 27 15 28
REMARK H PARENT
REMARK Flexibility Score: inf
ROOT
ATOM      1  C   UNL     1       1.631   3.789  -2.748  1.00  0.00     0.309 C
ENDROOT
BRANCH   1   2
ATOM      2  O   UNL     1       0.835   4.928  -3.103  1.00  0.00    -0.442 OA
BRANCH   2   3
ATOM      3  C   UNL     1       0.469   5.728  -2.066  1.00  0.00     0.311 C
ATOM      4  O   UNL     1       0.888   5.684  -0.918  1.00  0.00    -0.252 OA
BRANCH   3   5
ATOM      5  C   UNL     1      -0.552   6.723  -2.483  1.00  0.00     0.113 C
ATOM      6  C   UNL     1      -1.995   6.382  -2.292  1.00  0.00     0.035 C
ATOM      7  C   UNL     1      -1.415   6.455  -3.674  1.00  0.00    -0.014 C
ATOM      8  C   UNL     1      -1.260   5.171  -4.419  1.00  0.00     0.012 C
ATOM      9  C   UNL     1      -1.739   7.617  -4.552  1.00  0.00     0.012 C
BRANCH   6  10
ATOM     10  C   UNL     1      -2.329   5.096  -1.698  1.00  0.00     0.001 C
ATOM     11  Br  UNL     1      -4.990   5.070  -2.697  1.00  0.00    -0.043 Br
ATOM     12  C   UNL     1      -3.495   4.432  -1.768  1.00  0.00     0.057 C
ATOM     13  Br  UNL     1      -3.716   2.773  -0.922  1.00  0.00    -0.043 Br
ENDBRANCH   6  10
ENDBRANCH   3   5
ENDBRANCH   2   3
ENDBRANCH   1   2
BRANCH   1  14
ATOM     14  C   UNL     1       0.749   2.620  -2.470  1.00  0.00     0.011 A
ATOM     15  C   UNL     1       0.107   1.964  -3.522  1.00  0.00     0.055 A
ATOM     16  C   UNL     1       0.567   2.180  -1.159  1.00  0.00     0.009 A
ATOM     17  C   UNL     1      -0.717   0.870  -3.261  1.00  0.00     0.127 A
ATOM     18  C   UNL     1      -0.259   1.086  -0.899  1.00  0.00     0.004 A
ATOM     19  C   UNL     1      -0.901   0.431  -1.950  1.00  0.00     0.047 A
BRANCH  17  20
ATOM     20  O   UNL     1      -1.345   0.230  -4.286  1.00  0.00    -0.457 OA
BRANCH  20  21
ATOM     21  C   UNL     1      -2.726   0.320  -4.351  1.00  0.00     0.127 A
ATOM     22  C   UNL     1      -3.480  -0.836  -4.280  1.00  0.00     0.047 A
ATOM     23  C   UNL     1      -3.314   1.565  -4.487  1.00  0.00     0.047 A
ATOM     24  C   UNL     1      -4.871  -0.746  -4.346  1.00  0.00     0.004 A
ATOM     25  C   UNL     1      -4.704   1.655  -4.554  1.00  0.00     0.004 A
ATOM     26  C   UNL     1      -5.483   0.500  -4.482  1.00  0.00     0.000 A
ENDBRANCH  20  21
ENDBRANCH  17  20
ENDBRANCH   1  14
BRANCH   1  27
ATOM     27  C   UNL     1       2.608   3.521  -3.822  1.00  0.00     0.113 C
ATOM     28  N   UNL     1       3.382   3.319  -4.663  1.00  0.00    -0.194 NA
ENDBRANCH   1  27
TORSDOF 8
ENDMDL
MODEL 3
REMARK VINA RESULT:    -6.459      2.360      6.027
REMARK INTER + INTRA:         -11.443
REMARK INTER:                 -10.961
REMARK INTRA:                  -0.482
REMARK UNBOUND:                -1.963
REMARK SMILES CC1(C)C(C=C(Br)Br)C1C(=O)OC(C#N)c1cccc(Oc2ccccc2)c1
REMARK SMILES IDX 13 1 12 2 10 3 11 4 9 5 4 6 2 7 1 8 3 9 5 10 7 11 6 12 8 13
REMARK SMILES IDX 16 14 28 15 17 16 20 17 18 18 19 19 21 20 22 21 23 22 27 23
REMARK SMILES IDX 24 24 26 25 25 26 14 27 15 28
REMARK H PARENT
REMARK Flexibility Score: inf
ROOT
ATOM      1  C   UNL     1       0.795   3.464  -2.070  1.00  0.00     0.309 C
ENDROOT
BRANCH   1   2
ATOM      2  O   UNL     1      -0.376   4.146  -2.538  1.00  0.00    -0.442 OA
BRANCH   2   3
ATOM      3  C   UNL     1      -1.166   4.678  -1.567  1.00  0.00     0.311 C
ATOM      4  O   UNL     1      -2.040   4.105  -0.932  1.00  0.00    -0.252 OA
BRANCH   3   5
ATOM      5  C   UNL     1      -0.849   6.111  -1.336  1.00  0.00     0.113 C
ATOM      6  C   UNL     1      -1.918   7.125  -1.592  1.00  0.00     0.035 C
ATOM      7  C   UNL     1      -0.722   7.047  -2.495  1.00  0.00    -0.014 C
ATOM      8  C   UNL     1      -0.944   6.534  -3.879  1.00  0.00     0.012 C
ATOM      9  C   UNL     1       0.340   8.092  -2.410  1.00  0.00     0.012 C
BRANCH   6  10
ATOM     10  C   UNL     1      -3.219   6.658  -2.046  1.00  0.00     0.001 C
ATOM     11  Br  UNL     1      -4.177   9.255  -2.694  1.00  0.00    -0.043 Br
ATOM     12  C   UNL     1      -4.240   7.393  -2.519  1.00  0.00     0.057 C
ATOM     13  Br  UNL     1      -5.846   6.585  -3.055  1.00  0.00    -0.043 Br
ENDBRANCH   6  10
ENDBRANCH   3   5
ENDBRANCH   2   3
ENDBRANCH   1   2
BRANCH   1  14
ATOM     14  C   UNL     1       0.441   2.080  -1.645  1.00  0.00     0.011 A
ATOM     15  C   UNL     1      -0.293   1.254  -2.497  1.00  0.00     0.055 A
ATOM     16  C   UNL     1       0.845   1.609  -0.396  1.00  0.00     0.009 A
ATOM     17  C   UNL     1      -0.623  -0.041  -2.099  1.00  0.00     0.127 A
ATOM     18  C   UNL     1       0.514   0.314   0.002  1.00  0.00     0.004 A
ATOM     19  C   UNL     1      -0.220  -0.511  -0.849  1.00  0.00     0.047 A
BRANCH  17  20
ATOM     20  O   UNL     1      -1.340  -0.847  -2.930  1.00  0.00    -0.457 OA
BRANCH  20  21
ATOM     21  C   UNL     1      -2.646  -0.482  -3.212  1.00  0.00     0.127 A
ATOM     22  C   UNL     1      -3.259  -0.991  -4.342  1.00  0.00     0.047 A
ATOM     23  C   UNL     1      -3.303   0.384  -2.356  1.00  0.00     0.047 A
ATOM     24  C   UNL     1      -4.574  -0.623  -4.627  1.00  0.00     0.004 A
ATOM     25  C   UNL     1      -4.617   0.752  -2.640  1.00  0.00     0.004 A
ATOM     26  C   UNL     1      -5.254   0.249  -3.775  1.00  0.00     0.000 A
ENDBRANCH  20  21
ENDBRANCH  17  20
ENDBRANCH   1  14
BRANCH   1  27
ATOM     27  C   UNL     1       1.829   3.488  -3.125  1.00  0.00     0.113 C
ATOM     28  N   UNL     1       2.647   3.515  -3.948  1.00  0.00    -0.194 NA
ENDBRANCH   1  27
TORSDOF 8
ENDMDL
MODEL 4
REMARK VINA RESULT:    -6.453      3.300      6.512
REMARK INTER + INTRA:         -11.434
REMARK INTER:                 -10.588
REMARK INTRA:                  -0.846
REMARK UNBOUND:                -1.963
REMARK SMILES CC1(C)C(C=C(Br)Br)C1C(=O)OC(C#N)c1cccc(Oc2ccccc2)c1
REMARK SMILES IDX 13 1 12 2 10 3 11 4 9 5 4 6 2 7 1 8 3 9 5 10 7 11 6 12 8 13
REMARK SMILES IDX 16 14 28 15 17 16 20 17 18 18 19 19 21 20 22 21 23 22 27 23
REMARK SMILES IDX 24 24 26 25 25 26 14 27 15 28
REMARK H PARENT
REMARK Flexibility Score: inf
ROOT
ATOM      1  C   UNL     1      -3.691   1.293  -3.977  1.00  0.00     0.309 C
ENDROOT
BRANCH   1   2
ATOM      2  O   UNL     1      -4.022   2.546  -3.363  1.00  0.00    -0.442 OA
BRANCH   2   3
ATOM      3  C   UNL     1      -3.517   3.647  -3.979  1.00  0.00     0.311 C
ATOM      4  O   UNL     1      -2.503   3.711  -4.660  1.00  0.00    -0.252 OA
BRANCH   3   5
ATOM      5  C   UNL     1      -4.364   4.843  -3.733  1.00  0.00     0.113 C
ATOM      6  C   UNL     1      -3.858   5.889  -2.793  1.00  0.00     0.035 C
ATOM      7  C   UNL     1      -5.026   5.030  -2.405  1.00  0.00    -0.014 C
ATOM      8  C   UNL     1      -4.805   4.022  -1.327  1.00  0.00     0.012 C
ATOM      9  C   UNL     1      -6.402   5.606  -2.410  1.00  0.00     0.012 C
BRANCH   6  10
ATOM     10  C   UNL     1      -2.557   5.691  -2.172  1.00  0.00     0.001 C
ATOM     11  Br  UNL     1      -1.148   7.225  -4.106  1.00  0.00    -0.043 Br
ATOM     12  C   UNL     1      -1.367   6.163  -2.580  1.00  0.00     0.057 C
ATOM     13  Br  UNL     1       0.203   5.787  -1.626  1.00  0.00    -0.043 Br
ENDBRANCH   6  10
ENDBRANCH   3   5
ENDBRANCH   2   3
ENDBRANCH   1   2
BRANCH   1  14
ATOM     14  C   UNL     1      -2.624   0.609  -3.193  1.00  0.00     0.011 A
ATOM     15  C   UNL     1      -2.072   1.232  -2.073  1.00  0.00     0.055 A
ATOM     16  C   UNL     1      -2.178  -0.656  -3.578  1.00  0.00     0.009 A
ATOM     17  C   UNL     1      -1.074   0.591  -1.340  1.00  0.00     0.127 A
ATOM     18  C   UNL     1      -1.179  -1.296  -2.844  1.00  0.00     0.004 A
ATOM     19  C   UNL     1      -0.627  -0.673  -1.725  1.00  0.00     0.047 A
BRANCH  17  20
ATOM     20  O   UNL     1      -0.534   1.199  -0.248  1.00  0.00    -0.457 OA
BRANCH  20  21
ATOM     21  C   UNL     1       0.834   1.418  -0.244  1.00  0.00     0.127 A
ATOM     22  C   UNL     1       1.588   0.948   0.816  1.00  0.00     0.047 A
ATOM     23  C   UNL     1       1.410   2.101  -1.300  1.00  0.00     0.047 A
ATOM     24  C   UNL     1       2.966   1.169   0.821  1.00  0.00     0.004 A
ATOM     25  C   UNL     1       2.787   2.322  -1.295  1.00  0.00     0.004 A
ATOM     26  C   UNL     1       3.565   1.855  -0.236  1.00  0.00     0.000 A
ENDBRANCH  20  21
ENDBRANCH  17  20
ENDBRANCH   1  14
BRANCH   1  27
ATOM     27  C   UNL     1      -4.913   0.474  -4.108  1.00  0.00     0.113 C
ATOM     28  N   UNL     1      -5.867  -0.178  -4.212  1.00  0.00    -0.194 NA
ENDBRANCH   1  27
TORSDOF 8
ENDMDL
MODEL 5
REMARK VINA RESULT:    -6.442      2.981      4.824
REMARK INTER + INTRA:         -11.418
REMARK INTER:                 -10.189
REMARK INTRA:                  -1.229
REMARK UNBOUND:                -1.963
REMARK SMILES CC1(C)C(C=C(Br)Br)C1C(=O)OC(C#N)c1cccc(Oc2ccccc2)c1
REMARK SMILES IDX 13 1 12 2 10 3 11 4 9 5 4 6 2 7 1 8 3 9 5 10 7 11 6 12 8 13
REMARK SMILES IDX 16 14 28 15 17 16 20 17 18 18 19 19 21 20 22 21 23 22 27 23
REMARK SMILES IDX 24 24 26 25 25 26 14 27 15 28
REMARK H PARENT
REMARK Flexibility Score: inf
ROOT
ATOM      1  C   UNL     1      -4.698   1.405  -2.886  1.00  0.00     0.309 C
ENDROOT
BRANCH   1   2
ATOM      2  O   UNL     1      -3.368   1.642  -3.369  1.00  0.00    -0.442 OA
BRANCH   2   3
ATOM      3  C   UNL     1      -2.418   1.788  -2.407  1.00  0.00     0.311 C
ATOM      4  O   UNL     1      -1.824   0.897  -1.816  1.00  0.00    -0.252 OA
BRANCH   3   5
ATOM      5  C   UNL     1      -2.151   3.222  -2.123  1.00  0.00     0.113 C
ATOM      6  C   UNL     1      -1.124   3.562  -1.091  1.00  0.00     0.035 C
ATOM      7  C   UNL     1      -2.577   3.818  -0.820  1.00  0.00    -0.014 C
ATOM      8  C   UNL     1      -3.245   2.956   0.199  1.00  0.00     0.012 C
ATOM      9  C   UNL     1      -3.101   5.215  -0.853  1.00  0.00     0.012 C
BRANCH   6  10
ATOM     10  C   UNL     1      -0.429   2.472  -0.423  1.00  0.00     0.001 C
ATOM     11  Br  UNL     1       1.997   2.837  -1.860  1.00  0.00    -0.043 Br
ATOM     12  C   UNL     1       0.833   2.053  -0.621  1.00  0.00     0.057 C
ATOM     13  Br  UNL     1       1.540   0.618   0.357  1.00  0.00    -0.043 Br
ENDBRANCH   6  10
ENDBRANCH   3   5
ENDBRANCH   2   3
ENDBRANCH   1   2
BRANCH   1  14
ATOM     14  C   UNL     1      -5.460   2.685  -2.847  1.00  0.00     0.011 A
ATOM     15  C   UNL     1      -5.048   3.767  -3.627  1.00  0.00     0.055 A
ATOM     16  C   UNL     1      -6.586   2.802  -2.033  1.00  0.00     0.009 A
ATOM     17  C   UNL     1      -5.762   4.964  -3.590  1.00  0.00     0.127 A
ATOM     18  C   UNL     1      -7.300   4.000  -1.997  1.00  0.00     0.004 A
ATOM     19  C   UNL     1      -6.887   5.081  -2.775  1.00  0.00     0.047 A
BRANCH  17  20
ATOM     20  O   UNL     1      -5.360   6.020  -4.350  1.00  0.00    -0.457 OA
BRANCH  20  21
ATOM     21  C   UNL     1      -4.309   6.789  -3.878  1.00  0.00     0.127 A
ATOM     22  C   UNL     1      -4.570   7.805  -2.976  1.00  0.00     0.047 A
ATOM     23  C   UNL     1      -3.026   6.522  -4.320  1.00  0.00     0.047 A
ATOM     24  C   UNL     1      -3.512   8.580  -2.500  1.00  0.00     0.004 A
ATOM     25  C   UNL     1      -1.969   7.297  -3.845  1.00  0.00     0.004 A
ATOM     26  C   UNL     1      -2.211   8.326  -2.934  1.00  0.00     0.000 A
ENDBRANCH  20  21
ENDBRANCH  17  20
ENDBRANCH   1  14
BRANCH   1  27
ATOM     27  C   UNL     1      -5.349   0.381  -3.728  1.00  0.00     0.113 C
ATOM     28  N   UNL     1      -5.868  -0.426  -4.381  1.00  0.00    -0.194 NA
ENDBRANCH   1  27
TORSDOF 8
ENDMDL
