MODEL 1
REMARK VINA RESULT:    -7.691      0.000      0.000
REMARK INTER + INTRA:         -11.772
REMARK INTER:                 -11.288
REMARK INTRA:                  -0.484
REMARK UNBOUND:                -0.484
REMARK SMILES CC1(C)C(C=C(Br)Br)C1C(=O)OC(C#N)c1cccc(Oc2ccccc2)c1
REMARK SMILES IDX 13 1 12 2 10 3 11 4 9 5 4 6 2 7 1 8 3 9 5 10 7 11 6 12 8 13
REMARK SMILES IDX 16 14 28 15 17 16 20 17 18 18 19 19 21 20 22 21 23 22 27 23
REMARK SMILES IDX 24 24 26 25 25 26 14 27 15 28
REMARK H PARENT
REMARK Flexibility Score: inf
ROOT
ATOM      1  C   UNL     1      -4.007   1.156  -4.114  1.00  0.00     0.309 C
ENDROOT
BRANCH   1   2
ATOM      2  O   UNL     1      -4.541   2.256  -3.365  1.00  0.00    -0.442 OA
BRANCH   2   3
ATOM      3  C   UNL     1      -4.439   3.472  -3.965  1.00  0.00     0.311 C
ATOM      4  O   UNL     1      -3.519   3.875  -4.663  1.00  0.00    -0.252 OA
BRANCH   3   5
ATOM      5  C   UNL     1      -5.625   4.320  -3.676  1.00  0.00     0.113 C
ATOM      6  C   UNL     1      -5.397   5.705  -3.163  1.00  0.00     0.035 C
ATOM      7  C   UNL     1      -5.978   4.654  -2.262  1.00  0.00    -0.014 C
ATOM      8  C   UNL     1      -5.116   4.153  -1.152  1.00  0.00     0.012 C
ATOM      9  C   UNL     1      -7.430   4.694  -1.919  1.00  0.00     0.012 C
BRANCH   6  10
ATOM     10  C   UNL     1      -4.027   6.159  -2.980  1.00  0.00     0.001 C
ATOM     11  Br  UNL     1      -4.724   8.909  -2.794  1.00  0.00    -0.043 Br
ATOM     12  C   UNL     1      -3.590   7.420  -2.818  1.00  0.00     0.057 C
ATOM     13  Br  UNL     1      -1.765   7.790  -2.597  1.00  0.00    -0.043 Br
ENDBRANCH   6  10
ENDBRANCH   3   5
ENDBRANCH   2   3
ENDBRANCH   1   2
BRANCH   1  14
ATOM     14  C   UNL     1      -2.817   0.594  -3.414  1.00  0.00     0.011 A
ATOM     15  C   UNL     1      -1.895   1.449  -2.808  1.00  0.00     0.055 A
ATOM     16  C   UNL     1      -2.625  -0.786  -3.363  1.00  0.00     0.009 A
ATOM     17  C   UNL     1      -0.783   0.923  -2.153  1.00  0.00     0.127 A
ATOM     18  C   UNL     1      -1.511  -1.312  -2.708  1.00  0.00     0.004 A
ATOM     19  C   UNL     1      -0.590  -0.457  -2.103  1.00  0.00     0.047 A
BRANCH  17  20
ATOM     20  O   UNL     1       0.117   1.757  -1.562  1.00  0.00    -0.457 OA
BRANCH  20  21
ATOM     21  C   UNL     1       0.573   1.420  -0.298  1.00  0.00     0.127 A
ATOM     22  C   UNL     1      -0.344   1.223   0.718  1.00  0.00     0.047 A
ATOM     23  C   UNL     1       1.933   1.289  -0.084  1.00  0.00     0.047 A
ATOM     24  C   UNL     1       0.114   0.884   1.992  1.00  0.00     0.004 A
ATOM     25  C   UNL     1       2.392   0.950   1.188  1.00  0.00     0.004 A
ATOM     26  C   UNL     1       1.483   0.747   2.227  1.00  0.00     0.000 A
ENDBRANCH  20  21
ENDBRANCH  17  20
ENDBRANCH   1  14
BRANCH   1  27
ATOM     27  C   UNL     1      -5.067   0.150  -4.328  1.00  0.00     0.113 C
ATOM     28  N   UNL     1      -5.908  -0.633  -4.495  1.00  0.00    -0.194 NA
ENDBRANCH   1  27
TORSDOF 8
ENDMDL
MODEL 2
REMARK VINA RESULT:    -7.609      3.039      6.584
REMARK INTER + INTRA:         -11.652
REMARK INTER:                 -10.189
REMARK INTRA:                  -1.464
REMARK UNBOUND:                -0.484
REMARK SMILES CC1(C)C(C=C(Br)Br)C1C(=O)OC(C#N)c1cccc(Oc2ccccc2)c1
REMARK SMILES IDX 13 1 12 2 10 3 11 4 9 5 4 6 2 7 1 8 3 9 5 10 7 11 6 12 8 13
REMARK SMILES IDX 16 14 28 15 17 16 20 17 18 18 19 19 21 20 22 21 23 22 27 23
REMARK SMILES IDX 24 24 26 25 25 26 14 27 15 28
REMARK H PARENT
REMARK Flexibility Score: inf
ROOT
ATOM      1  C   UNL     1      -4.196   1.496  -2.746  1.00  0.00     0.309 C
ENDROOT
BRANCH   1   2
ATOM      2  O   UNL     1      -2.873   1.610  -3.286  1.00  0.00    -0.442 OA
BRANCH   2   3
ATOM      3  C   UNL     1      -1.868   1.238  -2.448  1.00  0.00     0.311 C
ATOM      4  O   UNL     1      -1.650   0.117  -2.012  1.00  0.00    -0.252 OA
BRANCH   3   5
ATOM      5  C   UNL     1      -1.007   2.394  -2.088  1.00  0.00     0.113 C
ATOM      6  C   UNL     1      -0.154   2.290  -0.865  1.00  0.00     0.035 C
ATOM      7  C   UNL     1      -1.329   3.222  -0.886  1.00  0.00    -0.014 C
ATOM      8  C   UNL     1      -2.504   2.860  -0.039  1.00  0.00     0.012 C
ATOM      9  C   UNL     1      -1.105   4.693  -0.996  1.00  0.00     0.012 C
BRANCH   6  10
ATOM     10  C   UNL     1      -0.201   1.058  -0.092  1.00  0.00     0.001 C
ATOM     11  Br  UNL     1       2.518   1.200   0.725  1.00  0.00    -0.043 Br
ATOM     12  C   UNL     1       0.793   0.483   0.607  1.00  0.00     0.057 C
ATOM     13  Br  UNL     1       0.517  -1.119   1.541  1.00  0.00    -0.043 Br
ENDBRANCH   6  10
ENDBRANCH   3   5
ENDBRANCH   2   3
ENDBRANCH   1   2
BRANCH   1  14
ATOM     14  C   UNL     1      -4.905   2.802  -2.855  1.00  0.00     0.011 A
ATOM     15  C   UNL     1      -4.308   3.866  -3.532  1.00  0.00     0.055 A
ATOM     16  C   UNL     1      -6.167   2.961  -2.283  1.00  0.00     0.009 A
ATOM     17  C   UNL     1      -4.972   5.088  -3.635  1.00  0.00     0.127 A
ATOM     18  C   UNL     1      -6.830   4.184  -2.385  1.00  0.00     0.004 A
ATOM     19  C   UNL     1      -6.233   5.247  -3.061  1.00  0.00     0.047 A
BRANCH  17  20
ATOM     20  O   UNL     1      -4.389   6.127  -4.294  1.00  0.00    -0.457 OA
BRANCH  20  21
ATOM     21  C   UNL     1      -3.328   6.767  -3.675  1.00  0.00     0.127 A
ATOM     22  C   UNL     1      -3.543   7.424  -2.478  1.00  0.00     0.047 A
ATOM     23  C   UNL     1      -2.080   6.734  -4.271  1.00  0.00     0.047 A
ATOM     24  C   UNL     1      -2.475   8.070  -1.854  1.00  0.00     0.004 A
ATOM     25  C   UNL     1      -1.012   7.379  -3.649  1.00  0.00     0.004 A
ATOM     26  C   UNL     1      -1.209   8.047  -2.440  1.00  0.00     0.000 A
ENDBRANCH  20  21
ENDBRANCH  17  20
ENDBRANCH   1  14
BRANCH   1  27
ATOM     27  C   UNL     1      -4.912   0.401  -3.433  1.00  0.00     0.113 C
ATOM     28  N   UNL     1      -5.484  -0.454  -3.970  1.00  0.00    -0.194 NA
ENDBRANCH   1  27
TORSDOF 8
ENDMDL
MODEL 3
REMARK VINA RESULT:    -7.400      3.363      7.624
REMARK INTER + INTRA:         -11.345
REMARK INTER:                 -10.574
REMARK INTRA:                  -0.771
REMARK UNBOUND:                -0.484
REMARK SMILES CC1(C)C(C=C(Br)Br)C1C(=O)OC(C#N)c1cccc(Oc2ccccc2)c1
REMARK SMILES IDX 13 1 12 2 10 3 11 4 9 5 4 6 2 7 1 8 3 9 5 10 7 11 6 12 8 13
REMARK SMILES IDX 16 14 28 15 17 16 20 17 18 18 19 19 21 20 22 21 23 22 27 23
REMARK SMILES IDX 24 24 26 25 25 26 14 27 15 28
REMARK H PARENT
REMARK Flexibility Score: inf
ROOT
ATOM      1  C   UNL     1      -4.157   1.702  -2.446  1.00  0.00     0.309 C
ENDROOT
BRANCH   1   2
ATOM      2  O   UNL     1      -2.861   1.859  -3.039  1.00  0.00    -0.442 OA
BRANCH   2   3
ATOM      3  C   UNL     1      -1.822   1.392  -2.297  1.00  0.00     0.311 C
ATOM      4  O   UNL     1      -1.669   0.253  -1.878  1.00  0.00    -0.252 OA
BRANCH   3   5
ATOM      5  C   UNL     1      -0.826   2.460  -2.026  1.00  0.00     0.113 C
ATOM      6  C   UNL     1       0.079   2.304  -0.846  1.00  0.00     0.035 C
ATOM      7  C   UNL     1      -0.993   3.355  -0.839  1.00  0.00    -0.014 C
ATOM      8  C   UNL     1      -2.150   3.146   0.080  1.00  0.00     0.012 C
ATOM      9  C   UNL     1      -0.623   4.790  -1.015  1.00  0.00     0.012 C
BRANCH   6  10
ATOM     10  C   UNL     1      -0.053   1.109  -0.027  1.00  0.00     0.001 C
ATOM     11  Br  UNL     1       2.622   1.194   0.930  1.00  0.00    -0.043 Br
ATOM     12  C   UNL     1       0.881   0.531   0.748  1.00  0.00     0.057 C
ATOM     13  Br  UNL     1       0.499  -1.019   1.731  1.00  0.00    -0.043 Br
ENDBRANCH   6  10
ENDBRANCH   3   5
ENDBRANCH   2   3
ENDBRANCH   1   2
BRANCH   1  14
ATOM     14  C   UNL     1      -4.896   2.996  -2.486  1.00  0.00     0.011 A
ATOM     15  C   UNL     1      -6.289   3.008  -2.412  1.00  0.00     0.055 A
ATOM     16  C   UNL     1      -4.193   4.196  -2.597  1.00  0.00     0.009 A
ATOM     17  C   UNL     1      -6.979   4.219  -2.450  1.00  0.00     0.127 A
ATOM     18  C   UNL     1      -4.884   5.408  -2.635  1.00  0.00     0.004 A
ATOM     19  C   UNL     1      -6.277   5.419  -2.561  1.00  0.00     0.047 A
BRANCH  17  20
ATOM     20  O   UNL     1      -8.339   4.231  -2.379  1.00  0.00    -0.457 OA
BRANCH  20  21
ATOM     21  C   UNL     1      -8.916   4.330  -1.123  1.00  0.00     0.127 A
ATOM     22  C   UNL     1      -9.652   3.267  -0.635  1.00  0.00     0.047 A
ATOM     23  C   UNL     1      -8.742   5.491  -0.391  1.00  0.00     0.047 A
ATOM     24  C   UNL     1     -10.234   3.366   0.630  1.00  0.00     0.004 A
ATOM     25  C   UNL     1      -9.324   5.591   0.872  1.00  0.00     0.004 A
ATOM     26  C   UNL     1     -10.069   4.528   1.383  1.00  0.00     0.000 A
ENDBRANCH  20  21
ENDBRANCH  17  20
ENDBRANCH   1  14
BRANCH   1  27
ATOM     27  C   UNL     1      -4.881   0.613  -3.133  1.00  0.00     0.113 C
ATOM     28  N   UNL     1      -5.447  -0.249  -3.665  1.00  0.00    -0.194 NA
ENDBRANCH   1  27
TORSDOF 8
ENDMDL
MODEL 4
REMARK VINA RESULT:    -7.263      3.344      7.059
REMARK INTER + INTRA:         -11.145
REMARK INTER:                  -9.267
REMARK INTRA:                  -1.877
REMARK UNBOUND:                -0.484
REMARK SMILES CC1(C)C(C=C(Br)Br)C1C(=O)OC(C#N)c1cccc(Oc2ccccc2)c1
REMARK SMILES IDX 13 1 12 2 10 3 11 4 9 5 4 6 2 7 1 8 3 9 5 10 7 11 6 12 8 13
REMARK SMILES IDX 16 14 28 15 17 16 20 17 18 18 19 19 21 20 22 21 23 22 27 23
REMARK SMILES IDX 24 24 26 25 25 26 14 27 15 28
REMARK H PARENT
REMARK Flexibility Score: inf
ROOT
ATOM      1  C   UNL     1       1.381   2.464  -2.999  1.00  0.00     0.309 C
ENDROOT
BRANCH   1   2
ATOM      2  O   UNL     1       1.471   2.899  -1.636  1.00  0.00    -0.442 OA
BRANCH   2   3
ATOM      3  C   UNL     1       1.960   1.978  -0.763  1.00  0.00     0.311 C
ATOM      4  O   UNL     1       3.015   2.035  -0.146  1.00  0.00    -0.252 OA
BRANCH   3   5
ATOM      5  C   UNL     1       1.037   0.823  -0.619  1.00  0.00     0.113 C
ATOM      6  C   UNL     1      -0.382   1.093  -0.234  1.00  0.00     0.035 C
ATOM      7  C   UNL     1       0.546   0.422   0.735  1.00  0.00    -0.014 C
ATOM      8  C   UNL     1       0.969   1.207   1.932  1.00  0.00     0.012 C
ATOM      9  C   UNL     1       0.408  -1.040   1.000  1.00  0.00     0.012 C
BRANCH   6  10
ATOM     10  C   UNL     1      -0.793   2.474  -0.029  1.00  0.00     0.001 C
ATOM     11  Br  UNL     1      -3.424   2.079  -1.030  1.00  0.00    -0.043 Br
ATOM     12  C   UNL     1      -1.986   3.030  -0.300  1.00  0.00     0.057 C
ATOM     13  Br  UNL     1      -2.309   4.845   0.045  1.00  0.00    -0.043 Br
ENDBRANCH   6  10
ENDBRANCH   3   5
ENDBRANCH   2   3
ENDBRANCH   1   2
BRANCH   1  14
ATOM     14  C   UNL     1       0.069   2.870  -3.578  1.00  0.00     0.011 A
ATOM     15  C   UNL     1      -0.186   4.214  -3.852  1.00  0.00     0.055 A
ATOM     16  C   UNL     1      -0.902   1.907  -3.848  1.00  0.00     0.009 A
ATOM     17  C   UNL     1      -1.414   4.594  -4.394  1.00  0.00     0.127 A
ATOM     18  C   UNL     1      -2.130   2.287  -4.389  1.00  0.00     0.004 A
ATOM     19  C   UNL     1      -2.386   3.631  -4.662  1.00  0.00     0.047 A
BRANCH  17  20
ATOM     20  O   UNL     1      -1.664   5.905  -4.661  1.00  0.00    -0.457 OA
BRANCH  20  21
ATOM     21  C   UNL     1      -2.174   6.684  -3.635  1.00  0.00     0.127 A
ATOM     22  C   UNL     1      -1.299   7.298  -2.757  1.00  0.00     0.047 A
ATOM     23  C   UNL     1      -3.545   6.829  -3.515  1.00  0.00     0.047 A
ATOM     24  C   UNL     1      -1.812   8.082  -1.723  1.00  0.00     0.004 A
ATOM     25  C   UNL     1      -4.057   7.612  -2.482  1.00  0.00     0.004 A
ATOM     26  C   UNL     1      -3.191   8.240  -1.586  1.00  0.00     0.000 A
ENDBRANCH  20  21
ENDBRANCH  17  20
ENDBRANCH   1  14
BRANCH   1  27
ATOM     27  C   UNL     1       2.529   3.000  -3.760  1.00  0.00     0.113 C
ATOM     28  N   UNL     1       3.427   3.415  -4.366  1.00  0.00    -0.194 NA
ENDBRANCH   1  27
TORSDOF 8
ENDMDL
MODEL 5
REMARK VINA RESULT:    -7.207      2.839      6.250
REMARK INTER + INTRA:         -11.061
REMARK INTER:                 -10.004
REMARK INTRA:                  -1.057
REMARK UNBOUND:                -0.484
REMARK SMILES CC1(C)C(C=C(Br)Br)C1C(=O)OC(C#N)c1cccc(Oc2ccccc2)c1
REMARK SMILES IDX 13 1 12 2 10 3 11 4 9 5 4 6 2 7 1 8 3 9 5 10 7 11 6 12 8 13
REMARK SMILES IDX 16 14 28 15 17 16 20 17 18 18 19 19 21 20 22 21 23 22 27 23
REMARK SMILES IDX 24 24 26 25 25 26 14 27 15 28
REMARK H PARENT
REMARK Flexibility Score: inf
ROOT
ATOM      1  C   UNL     1      -0.326   1.379  -1.125  1.00  0.00     0.309 C
ENDROOT
BRANCH   1   2
ATOM      2  O   UNL     1       0.798   2.004  -1.760  1.00  0.00    -0.442 OA
BRANCH   2   3
ATOM      3  C   UNL     1       0.792   3.363  -1.744  1.00  0.00     0.311 C
ATOM      4  O   UNL     1       0.062   4.090  -1.085  1.00  0.00    -0.252 OA
BRANCH   3   5
ATOM      5  C   UNL     1       1.820   3.920  -2.662  1.00  0.00     0.113 C
ATOM      6  C   UNL     1       1.369   4.809  -3.776  1.00  0.00     0.035 C
ATOM      7  C   UNL     1       1.900   3.438  -4.076  1.00  0.00    -0.014 C
ATOM      8  C   UNL     1       0.924   2.418  -4.560  1.00  0.00     0.012 C
ATOM      9  C   UNL     1       3.263   3.284  -4.663  1.00  0.00     0.012 C
BRANCH   6  10
ATOM     10  C   UNL     1      -0.052   5.095  -3.902  1.00  0.00     0.001 C
ATOM     11  Br  UNL     1       0.105   7.609  -2.585  1.00  0.00    -0.043 Br
ATOM     12  C   UNL     1      -0.717   6.181  -3.472  1.00  0.00     0.057 C
ATOM     13  Br  UNL     1      -2.566   6.351  -3.738  1.00  0.00    -0.043 Br
ENDBRANCH   6  10
ENDBRANCH   3   5
ENDBRANCH   2   3
ENDBRANCH   1   2
BRANCH   1  14
ATOM     14  C   UNL     1      -1.140   0.649  -2.138  1.00  0.00     0.011 A
ATOM     15  C   UNL     1      -2.049   1.344  -2.937  1.00  0.00     0.055 A
ATOM     16  C   UNL     1      -0.993  -0.730  -2.288  1.00  0.00     0.009 A
ATOM     17  C   UNL     1      -2.810   0.661  -3.884  1.00  0.00     0.127 A
ATOM     18  C   UNL     1      -1.755  -1.413  -3.236  1.00  0.00     0.004 A
ATOM     19  C   UNL     1      -2.664  -0.718  -4.034  1.00  0.00     0.047 A
BRANCH  17  20
ATOM     20  O   UNL     1      -3.697   1.338  -4.663  1.00  0.00    -0.457 OA
BRANCH  20  21
ATOM     21  C   UNL     1      -4.569   2.212  -4.034  1.00  0.00     0.127 A
ATOM     22  C   UNL     1      -4.837   3.435  -4.620  1.00  0.00     0.047 A
ATOM     23  C   UNL     1      -5.151   1.837  -2.836  1.00  0.00     0.047 A
ATOM     24  C   UNL     1      -5.715   4.315  -3.986  1.00  0.00     0.004 A
ATOM     25  C   UNL     1      -6.028   2.716  -2.202  1.00  0.00     0.004 A
ATOM     26  C   UNL     1      -6.311   3.955  -2.777  1.00  0.00     0.000 A
ENDBRANCH  20  21
ENDBRANCH  17  20
ENDBRANCH   1  14
BRANCH   1  27
ATOM     27  C   UNL     1       0.152   0.499  -0.039  1.00  0.00     0.113 C
ATOM     28  N   UNL     1       0.538  -0.190   0.811  1.00  0.00    -0.194 NA
ENDBRANCH   1  27
TORSDOF 8
ENDMDL
