MODEL 1
REMARK VINA RESULT:    -6.518      0.000      0.000
REMARK INTER + INTRA:         -12.415
REMARK INTER:                  -9.185
REMARK INTRA:                  -3.230
REMARK UNBOUND:                -3.230
REMARK SMILES CC1(C)[C@H](C=C(Cl)Cl)[C@H]1C(=O)OCc1cccc(Oc2ccccc2)c1
REMARK SMILES IDX 13 1 12 2 10 3 11 4 9 5 4 6 2 7 1 8 3 9 5 10 7 11 6 12 8 13
REMARK SMILES IDX 14 14 26 15 15 16 18 17 16 18 17 19 19 20 20 21 21 22 25 23
REMARK SMILES IDX 22 24 24 25 23 26
REMARK H PARENT
REMARK Flexibility Score: inf
ROOT
ATOM      1  C   UNL     1      -0.255   6.541  -3.424  1.00  0.00     0.268 C 
ENDROOT
BRANCH   1   2
ATOM      2  O   UNL     1      -0.090   5.190  -3.011  1.00  0.00    -0.461 OA
BRANCH   2   3
ATOM      3  C   UNL     1       0.089   4.995  -1.672  1.00  0.00     0.310 C 
ATOM      4  O   UNL     1       0.658   5.749  -0.896  1.00  0.00    -0.252 OA
BRANCH   3   5
ATOM      5  C   UNL     1      -0.504   3.713  -1.216  1.00  0.00     0.113 C 
ATOM      6  C   UNL     1      -1.647   3.142  -1.996  1.00  0.00     0.035 C 
ATOM      7  C   UNL     1      -1.875   3.692  -0.618  1.00  0.00    -0.014 C 
ATOM      8  C   UNL     1      -2.189   2.717   0.466  1.00  0.00     0.012 C 
ATOM      9  C   UNL     1      -2.563   5.005  -0.448  1.00  0.00     0.012 C 
BRANCH   6  10
ATOM     10  C   UNL     1      -1.672   1.706  -2.230  1.00  0.00     0.011 C 
ATOM     11  Cl  UNL     1      -0.248   1.824  -4.514  1.00  0.00    -0.071 Cl
ATOM     12  C   UNL     1      -1.121   1.033  -3.252  1.00  0.00     0.103 C 
ATOM     13  Cl  UNL     1      -1.270  -0.688  -3.347  1.00  0.00    -0.071 Cl
ENDBRANCH   6  10
ENDBRANCH   3   5
ENDBRANCH   2   3
ENDBRANCH   1   2
BRANCH   1  14
ATOM     14  C   UNL     1      -1.689   6.929  -3.293  1.00  0.00    -0.007 A 
ATOM     15  C   UNL     1      -2.683   6.119  -3.843  1.00  0.00     0.054 A 
ATOM     16  C   UNL     1      -2.036   8.099  -2.618  1.00  0.00     0.007 A 
ATOM     17  C   UNL     1      -4.024   6.482  -3.720  1.00  0.00     0.127 A 
ATOM     18  C   UNL     1      -3.377   8.462  -2.496  1.00  0.00     0.004 A 
ATOM     19  C   UNL     1      -4.371   7.653  -3.047  1.00  0.00     0.047 A 
BRANCH  17  20
ATOM     20  O   UNL     1      -4.995   5.693  -4.257  1.00  0.00    -0.457 OA
BRANCH  20  21
ATOM     21  C   UNL     1      -5.089   4.389  -3.804  1.00  0.00     0.127 A 
ATOM     22  C   UNL     1      -4.767   3.352  -4.663  1.00  0.00     0.047 A 
ATOM     23  C   UNL     1      -5.501   4.154  -2.505  1.00  0.00     0.047 A 
ATOM     24  C   UNL     1      -4.862   2.039  -4.206  1.00  0.00     0.004 A 
ATOM     25  C   UNL     1      -5.596   2.839  -2.049  1.00  0.00     0.004 A 
ATOM     26  C   UNL     1      -5.276   1.781  -2.900  1.00  0.00     0.000 A 
ENDBRANCH  20  21
ENDBRANCH  17  20
ENDBRANCH   1  14
TORSDOF 7
ENDMDL
MODEL 2
REMARK VINA RESULT:    -6.220      2.259      4.475
REMARK INTER + INTRA:         -11.996
REMARK INTER:                  -9.783
REMARK INTRA:                  -2.213
REMARK UNBOUND:                -3.230
REMARK SMILES CC1(C)[C@H](C=C(Cl)Cl)[C@H]1C(=O)OCc1cccc(Oc2ccccc2)c1
REMARK SMILES IDX 13 1 12 2 10 3 11 4 9 5 4 6 2 7 1 8 3 9 5 10 7 11 6 12 8 13
REMARK SMILES IDX 14 14 26 15 15 16 18 17 16 18 17 19 19 20 20 21 21 22 25 23
REMARK SMILES IDX 22 24 24 25 23 26
REMARK H PARENT
REMARK Flexibility Score: inf
ROOT
ATOM      1  C   UNL     1      -4.289   2.014  -4.316  1.00  0.00     0.268 C 
ENDROOT
BRANCH   1   2
ATOM      2  O   UNL     1      -2.924   2.028  -3.916  1.00  0.00    -0.461 OA
BRANCH   2   3
ATOM      3  C   UNL     1      -2.672   1.586  -2.650  1.00  0.00     0.310 C 
ATOM      4  O   UNL     1      -3.249   0.680  -2.066  1.00  0.00    -0.252 OA
BRANCH   3   5
ATOM      5  C   UNL     1      -1.569   2.346  -2.009  1.00  0.00     0.113 C 
ATOM      6  C   UNL     1      -1.287   2.099  -0.560  1.00  0.00     0.035 C 
ATOM      7  C   UNL     1      -1.878   3.406  -1.000  1.00  0.00    -0.014 C 
ATOM      8  C   UNL     1      -1.008   4.616  -0.916  1.00  0.00     0.012 C 
ATOM      9  C   UNL     1      -3.317   3.695  -0.736  1.00  0.00     0.012 C 
BRANCH   6  10
ATOM     10  C   UNL     1       0.103   2.025  -0.132  1.00  0.00     0.011 C 
ATOM     11  Cl  UNL     1       0.225  -0.665  -0.227  1.00  0.00    -0.071 Cl
ATOM     12  C   UNL     1       0.848   0.923   0.045  1.00  0.00     0.103 C 
ATOM     13  Cl  UNL     1       2.492   1.053   0.566  1.00  0.00    -0.071 Cl
ENDBRANCH   6  10
ENDBRANCH   3   5
ENDBRANCH   2   3
ENDBRANCH   1   2
BRANCH   1  14
ATOM     14  C   UNL     1      -4.980   3.214  -3.762  1.00  0.00    -0.007 A 
ATOM     15  C   UNL     1      -4.519   4.492  -4.078  1.00  0.00     0.054 A 
ATOM     16  C   UNL     1      -6.089   3.057  -2.931  1.00  0.00     0.007 A 
ATOM     17  C   UNL     1      -5.167   5.613  -3.560  1.00  0.00     0.127 A 
ATOM     18  C   UNL     1      -6.736   4.179  -2.412  1.00  0.00     0.004 A 
ATOM     19  C   UNL     1      -6.275   5.457  -2.728  1.00  0.00     0.047 A 
BRANCH  17  20
ATOM     20  O   UNL     1      -4.717   6.861  -3.867  1.00  0.00    -0.457 OA
BRANCH  20  21
ATOM     21  C   UNL     1      -3.507   7.260  -3.328  1.00  0.00     0.127 A 
ATOM     22  C   UNL     1      -2.377   7.254  -4.128  1.00  0.00     0.047 A 
ATOM     23  C   UNL     1      -3.455   7.656  -2.004  1.00  0.00     0.047 A 
ATOM     24  C   UNL     1      -1.158   7.656  -3.585  1.00  0.00     0.004 A 
ATOM     25  C   UNL     1      -2.235   8.058  -1.461  1.00  0.00     0.004 A 
ATOM     26  C   UNL     1      -1.086   8.059  -2.253  1.00  0.00     0.000 A 
ENDBRANCH  20  21
ENDBRANCH  17  20
ENDBRANCH   1  14
TORSDOF 7
ENDMDL
MODEL 3
REMARK VINA RESULT:    -6.190      2.829      5.999
REMARK INTER + INTRA:         -11.952
REMARK INTER:                  -9.068
REMARK INTRA:                  -2.885
REMARK UNBOUND:                -3.230
REMARK SMILES CC1(C)[C@H](C=C(Cl)Cl)[C@H]1C(=O)OCc1cccc(Oc2ccccc2)c1
REMARK SMILES IDX 13 1 12 2 10 3 11 4 9 5 4 6 2 7 1 8 3 9 5 10 7 11 6 12 8 13
REMARK SMILES IDX 14 14 26 15 15 16 18 17 16 18 17 19 19 20 20 21 21 22 25 23
REMARK SMILES IDX 22 24 24 25 23 26
REMARK H PARENT
REMARK Flexibility Score: inf
ROOT
ATOM      1  C   UNL     1      -5.320   2.707  -4.195  1.00  0.00     0.268 C 
ENDROOT
BRANCH   1   2
ATOM      2  O   UNL     1      -4.560   3.769  -3.630  1.00  0.00    -0.461 OA
BRANCH   2   3
ATOM      3  C   UNL     1      -4.993   4.232  -2.422  1.00  0.00     0.310 C 
ATOM      4  O   UNL     1      -6.121   4.126  -1.963  1.00  0.00    -0.252 OA
BRANCH   3   5
ATOM      5  C   UNL     1      -3.909   4.916  -1.672  1.00  0.00     0.113 C 
ATOM      6  C   UNL     1      -2.494   4.668  -2.086  1.00  0.00     0.035 C 
ATOM      7  C   UNL     1      -3.002   4.128  -0.782  1.00  0.00    -0.014 C 
ATOM      8  C   UNL     1      -2.478   4.749   0.469  1.00  0.00     0.012 C 
ATOM      9  C   UNL     1      -3.284   2.669  -0.643  1.00  0.00     0.012 C 
BRANCH   6  10
ATOM     10  C   UNL     1      -1.575   5.797  -2.109  1.00  0.00     0.011 C 
ATOM     11  Cl  UNL     1      -2.483   6.782  -4.446  1.00  0.00    -0.071 Cl
ATOM     12  C   UNL     1      -1.474   6.753  -3.046  1.00  0.00     0.103 C 
ATOM     13  Cl  UNL     1      -0.303   8.015  -2.884  1.00  0.00    -0.071 Cl
ENDBRANCH   6  10
ENDBRANCH   3   5
ENDBRANCH   2   3
ENDBRANCH   1   2
BRANCH   1  14
ATOM     14  C   UNL     1      -4.491   1.468  -4.231  1.00  0.00    -0.007 A 
ATOM     15  C   UNL     1      -3.108   1.549  -4.067  1.00  0.00     0.054 A 
ATOM     16  C   UNL     1      -5.099   0.228  -4.427  1.00  0.00     0.007 A 
ATOM     17  C   UNL     1      -2.334   0.389  -4.100  1.00  0.00     0.127 A 
ATOM     18  C   UNL     1      -4.325  -0.931  -4.460  1.00  0.00     0.004 A 
ATOM     19  C   UNL     1      -2.942  -0.850  -4.297  1.00  0.00     0.047 A 
BRANCH  17  20
ATOM     20  O   UNL     1      -0.984   0.468  -3.941  1.00  0.00    -0.457 OA
BRANCH  20  21
ATOM     21  C   UNL     1      -0.503   0.884  -2.712  1.00  0.00     0.127 A 
ATOM     22  C   UNL     1      -0.590   0.025  -1.629  1.00  0.00     0.047 A 
ATOM     23  C   UNL     1       0.050   2.145  -2.595  1.00  0.00     0.047 A 
ATOM     24  C   UNL     1      -0.106   0.444  -0.391  1.00  0.00     0.004 A 
ATOM     25  C   UNL     1       0.535   2.564  -1.355  1.00  0.00     0.004 A 
ATOM     26  C   UNL     1       0.457   1.713  -0.253  1.00  0.00     0.000 A 
ENDBRANCH  20  21
ENDBRANCH  17  20
ENDBRANCH   1  14
TORSDOF 7
ENDMDL
MODEL 4
REMARK VINA RESULT:    -6.189      2.705      5.179
REMARK INTER + INTRA:         -11.951
REMARK INTER:                  -8.588
REMARK INTRA:                  -3.363
REMARK UNBOUND:                -3.230
REMARK SMILES CC1(C)[C@H](C=C(Cl)Cl)[C@H]1C(=O)OCc1cccc(Oc2ccccc2)c1
REMARK SMILES IDX 13 1 12 2 10 3 11 4 9 5 4 6 2 7 1 8 3 9 5 10 7 11 6 12 8 13
REMARK SMILES IDX 14 14 26 15 15 16 18 17 16 18 17 19 19 20 20 21 21 22 25 23
REMARK SMILES IDX 22 24 24 25 23 26
REMARK H PARENT
REMARK Flexibility Score: inf
ROOT
ATOM      1  C   UNL     1      -0.040   1.341  -0.403  1.00  0.00     0.268 C 
ENDROOT
BRANCH   1   2
ATOM      2  O   UNL     1       0.165   2.735  -0.595  1.00  0.00    -0.461 OA
BRANCH   2   3
ATOM      3  C   UNL     1       1.060   3.075  -1.567  1.00  0.00     0.310 C 
ATOM      4  O   UNL     1       2.090   2.479  -1.851  1.00  0.00    -0.252 OA
BRANCH   3   5
ATOM      5  C   UNL     1       0.648   4.303  -2.293  1.00  0.00     0.113 C 
ATOM      6  C   UNL     1      -0.813   4.547  -2.502  1.00  0.00     0.035 C 
ATOM      7  C   UNL     1       0.067   4.201  -3.668  1.00  0.00    -0.014 C 
ATOM      8  C   UNL     1       0.342   5.278  -4.663  1.00  0.00     0.012 C 
ATOM      9  C   UNL     1      -0.008   2.841  -4.275  1.00  0.00     0.012 C 
BRANCH   6  10
ATOM     10  C   UNL     1      -1.316   5.903  -2.335  1.00  0.00     0.011 C 
ATOM     11  Cl  UNL     1      -2.538   5.401   0.013  1.00  0.00    -0.071 Cl
ATOM     12  C   UNL     1      -2.052   6.384  -1.321  1.00  0.00     0.103 C 
ATOM     13  Cl  UNL     1      -2.555   8.038  -1.314  1.00  0.00    -0.071 Cl
ENDBRANCH   6  10
ENDBRANCH   3   5
ENDBRANCH   2   3
ENDBRANCH   1   2
BRANCH   1  14
ATOM     14  C   UNL     1      -1.028   0.842  -1.403  1.00  0.00    -0.007 A 
ATOM     15  C   UNL     1      -2.282   1.444  -1.504  1.00  0.00     0.054 A 
ATOM     16  C   UNL     1      -0.697  -0.226  -2.237  1.00  0.00     0.007 A 
ATOM     17  C   UNL     1      -3.205   0.977  -2.440  1.00  0.00     0.127 A 
ATOM     18  C   UNL     1      -1.620  -0.693  -3.172  1.00  0.00     0.004 A 
ATOM     19  C   UNL     1      -2.875  -0.091  -3.273  1.00  0.00     0.047 A 
BRANCH  17  20
ATOM     20  O   UNL     1      -4.430   1.564  -2.539  1.00  0.00    -0.457 OA
BRANCH  20  21
ATOM     21  C   UNL     1      -4.481   2.877  -2.976  1.00  0.00     0.127 A 
ATOM     22  C   UNL     1      -3.923   3.201  -4.201  1.00  0.00     0.047 A 
ATOM     23  C   UNL     1      -5.088   3.830  -2.179  1.00  0.00     0.047 A 
ATOM     24  C   UNL     1      -3.975   4.523  -4.641  1.00  0.00     0.004 A 
ATOM     25  C   UNL     1      -5.140   5.152  -2.621  1.00  0.00     0.004 A 
ATOM     26  C   UNL     1      -4.584   5.498  -3.852  1.00  0.00     0.000 A 
ENDBRANCH  20  21
ENDBRANCH  17  20
ENDBRANCH   1  14
TORSDOF 7
ENDMDL
MODEL 5
REMARK VINA RESULT:    -6.078     13.921     17.339
REMARK INTER + INTRA:         -11.795
REMARK INTER:                 -10.641
REMARK INTRA:                  -1.155
REMARK UNBOUND:                -3.230
REMARK SMILES CC1(C)[C@H](C=C(Cl)Cl)[C@H]1C(=O)OCc1cccc(Oc2ccccc2)c1
REMARK SMILES IDX 13 1 12 2 10 3 11 4 9 5 4 6 2 7 1 8 3 9 5 10 7 11 6 12 8 13
REMARK SMILES IDX 14 14 26 15 15 16 18 17 16 18 17 19 19 20 20 21 21 22 25 23
REMARK SMILES IDX 22 24 24 25 23 26
REMARK H PARENT
REMARK Flexibility Score: inf
ROOT
ATOM      1  C   UNL     1       3.350  -4.756  10.300  1.00  0.00     0.268 C 
ENDROOT
BRANCH   1   2
ATOM      2  O   UNL     1       2.666  -5.865   9.732  1.00  0.00    -0.461 OA
BRANCH   2   3
ATOM      3  C   UNL     1       1.500  -5.576   9.084  1.00  0.00     0.310 C 
ATOM      4  O   UNL     1       0.571  -6.344   8.878  1.00  0.00    -0.252 OA
BRANCH   3   5
ATOM      5  C   UNL     1       1.456  -4.163   8.628  1.00  0.00     0.113 C 
ATOM      6  C   UNL     1       0.211  -3.671   7.962  1.00  0.00     0.035 C 
ATOM      7  C   UNL     1       1.471  -3.848   7.166  1.00  0.00    -0.014 C 
ATOM      8  C   UNL     1       2.159  -2.613   6.688  1.00  0.00     0.012 C 
ATOM      9  C   UNL     1       1.598  -4.997   6.224  1.00  0.00     0.012 C 
BRANCH   6  10
ATOM     10  C   UNL     1      -0.269  -2.338   8.297  1.00  0.00     0.011 C 
ATOM     11  Cl  UNL     1      -2.651  -3.184   9.230  1.00  0.00    -0.071 Cl
ATOM     12  C   UNL     1      -1.453  -2.005   8.834  1.00  0.00     0.103 C 
ATOM     13  Cl  UNL     1      -1.833  -0.349   9.154  1.00  0.00    -0.071 Cl
ENDBRANCH   6  10
ENDBRANCH   3   5
ENDBRANCH   2   3
ENDBRANCH   1   2
BRANCH   1  14
ATOM     14  C   UNL     1       4.821  -4.943  10.137  1.00  0.00    -0.007 A 
ATOM     15  C   UNL     1       5.316  -6.127   9.589  1.00  0.00     0.054 A 
ATOM     16  C   UNL     1       5.700  -3.935  10.531  1.00  0.00     0.007 A 
ATOM     17  C   UNL     1       6.691  -6.301   9.436  1.00  0.00     0.127 A 
ATOM     18  C   UNL     1       7.075  -4.111  10.379  1.00  0.00     0.004 A 
ATOM     19  C   UNL     1       7.570  -5.294   9.831  1.00  0.00     0.047 A 
BRANCH  17  20
ATOM     20  O   UNL     1       7.175  -7.456   8.902  1.00  0.00    -0.457 OA
BRANCH  20  21
ATOM     21  C   UNL     1       7.853  -7.374   7.698  1.00  0.00     0.127 A 
ATOM     22  C   UNL     1       7.244  -6.750   6.623  1.00  0.00     0.047 A 
ATOM     23  C   UNL     1       9.120  -7.918   7.598  1.00  0.00     0.047 A 
ATOM     24  C   UNL     1       7.926  -6.667   5.410  1.00  0.00     0.004 A 
ATOM     25  C   UNL     1       9.803  -7.835   6.384  1.00  0.00     0.004 A 
ATOM     26  C   UNL     1       9.206  -7.209   5.290  1.00  0.00     0.000 A 
ENDBRANCH  20  21
ENDBRANCH  17  20
ENDBRANCH   1  14
TORSDOF 7
ENDMDL
