MODEL 1
REMARK VINA RESULT:    -5.950      0.000      0.000
REMARK INTER + INTRA:          -7.622
REMARK INTER:                  -6.994
REMARK INTRA:                  -0.628
REMARK UNBOUND:                -0.628
REMARK SMILES Clc1ccc(C(c2ccc(Cl)cc2)C(Cl)(Cl)Cl)cc1
REMARK SMILES IDX 6 1 14 2 15 3 16 4 17 5 5 6 4 7 18 8 3 9 19 10 2 11 1 12
REMARK SMILES IDX 7 13 8 14 13 15 9 16 12 17 10 18 11 19
REMARK H PARENT
REMARK Flexibility Score: inf
ROOT
ATOM      1  C   UNL     1      -1.284   1.959  -1.169  1.00  0.00     0.101 C 
ENDROOT
BRANCH   1   2
ATOM      2  C   UNL     1      -1.715   1.114  -2.439  1.00  0.00     0.201 C 
ATOM      3  Cl  UNL     1      -1.047   1.719  -3.990  1.00  0.00    -0.083 Cl
ATOM      4  Cl  UNL     1      -3.520   1.164  -2.609  1.00  0.00    -0.083 Cl
ATOM      5  Cl  UNL     1      -1.281  -0.631  -2.279  1.00  0.00    -0.083 Cl
ENDBRANCH   1   2
BRANCH   1   6
ATOM      6  C   UNL     1      -1.694   3.393  -1.177  1.00  0.00    -0.036 A 
ATOM      7  C   UNL     1      -2.187   3.983  -0.015  1.00  0.00     0.006 A 
ATOM      8  C   UNL     1      -1.586   4.142  -2.349  1.00  0.00     0.006 A 
ATOM      9  C   UNL     1      -2.573   5.324  -0.023  1.00  0.00     0.021 A 
ATOM     10  C   UNL     1      -1.970   5.483  -2.357  1.00  0.00     0.021 A 
ATOM     11  C   UNL     1      -2.464   6.074  -1.195  1.00  0.00     0.041 A 
ATOM     12  Cl  UNL     1      -2.939   7.728  -1.205  1.00  0.00    -0.084 Cl
ENDBRANCH   1   6
BRANCH   1  13
ATOM     13  C   UNL     1       0.168   1.754  -0.666  1.00  0.00    -0.036 A 
ATOM     14  C   UNL     1       0.351   1.057   0.495  1.00  0.00     0.006 A 
ATOM     15  C   UNL     1       1.183   2.283  -1.413  1.00  0.00     0.006 A 
ATOM     16  C   UNL     1       1.657   0.874   0.947  1.00  0.00     0.021 A 
ATOM     17  C   UNL     1       2.490   2.101  -0.959  1.00  0.00     0.021 A 
ATOM     18  C   UNL     1       2.727   1.396   0.220  1.00  0.00     0.041 A 
ATOM     19  Cl  UNL     1       4.339   1.171   0.779  1.00  0.00    -0.084 Cl
ENDBRANCH   1  13
TORSDOF 3
ENDMDL
MODEL 2
REMARK VINA RESULT:    -5.903      2.219      4.756
REMARK INTER + INTRA:          -7.566
REMARK INTER:                  -7.077
REMARK INTRA:                  -0.489
REMARK UNBOUND:                -0.628
REMARK SMILES Clc1ccc(C(c2ccc(Cl)cc2)C(Cl)(Cl)Cl)cc1
REMARK SMILES IDX 6 1 14 2 15 3 16 4 17 5 5 6 4 7 18 8 3 9 19 10 2 11 1 12
REMARK SMILES IDX 7 13 8 14 13 15 9 16 12 17 10 18 11 19
REMARK H PARENT
REMARK Flexibility Score: inf
ROOT
ATOM      1  C   UNL     1      -0.016   1.453  -1.549  1.00  0.00     0.101 C 
ENDROOT
BRANCH   1   2
ATOM      2  C   UNL     1       0.358   0.878  -0.120  1.00  0.00     0.201 C 
ATOM      3  Cl  UNL     1      -0.610   1.561   1.227  1.00  0.00    -0.083 Cl
ATOM      4  Cl  UNL     1       2.091   1.269   0.250  1.00  0.00    -0.083 Cl
ATOM      5  Cl  UNL     1       0.231  -0.920  -0.052  1.00  0.00    -0.083 Cl
ENDBRANCH   1   2
BRANCH   1   6
ATOM      6  C   UNL     1       0.057   2.936  -1.688  1.00  0.00    -0.036 A 
ATOM      7  C   UNL     1       0.965   3.510  -2.577  1.00  0.00     0.006 A 
ATOM      8  C   UNL     1      -0.783   3.751  -0.927  1.00  0.00     0.006 A 
ATOM      9  C   UNL     1       1.035   4.897  -2.707  1.00  0.00     0.021 A 
ATOM     10  C   UNL     1      -0.714   5.138  -1.057  1.00  0.00     0.021 A 
ATOM     11  C   UNL     1       0.194   5.711  -1.946  1.00  0.00     0.041 A 
ATOM     12  Cl  UNL     1       0.280   7.423  -2.105  1.00  0.00    -0.084 Cl
ENDBRANCH   1   6
BRANCH   1  13
ATOM     13  C   UNL     1      -1.272   0.849  -2.227  1.00  0.00    -0.036 A 
ATOM     14  C   UNL     1      -2.498   1.271  -1.795  1.00  0.00     0.006 A 
ATOM     15  C   UNL     1      -1.082  -0.074  -3.218  1.00  0.00     0.006 A 
ATOM     16  C   UNL     1      -3.628   0.725  -2.404  1.00  0.00     0.021 A 
ATOM     17  C   UNL     1      -2.212  -0.620  -3.826  1.00  0.00     0.021 A 
ATOM     18  C   UNL     1      -3.485  -0.220  -3.420  1.00  0.00     0.041 A 
ATOM     19  Cl  UNL     1      -4.879  -0.894  -4.171  1.00  0.00    -0.084 Cl
ENDBRANCH   1  13
TORSDOF 3
ENDMDL
MODEL 3
REMARK VINA RESULT:    -5.897      0.206      1.579
REMARK INTER + INTRA:          -7.559
REMARK INTER:                  -6.930
REMARK INTRA:                  -0.629
REMARK UNBOUND:                -0.628
REMARK SMILES Clc1ccc(C(c2ccc(Cl)cc2)C(Cl)(Cl)Cl)cc1
REMARK SMILES IDX 6 1 14 2 15 3 16 4 17 5 5 6 4 7 18 8 3 9 19 10 2 11 1 12
REMARK SMILES IDX 7 13 8 14 13 15 9 16 12 17 10 18 11 19
REMARK H PARENT
REMARK Flexibility Score: inf
ROOT
ATOM      1  C   UNL     1      -1.383   2.006  -1.323  1.00  0.00     0.101 C 
ENDROOT
BRANCH   1   2
ATOM      2  C   UNL     1      -1.818   1.159  -2.591  1.00  0.00     0.201 C 
ATOM      3  Cl  UNL     1      -1.122   1.739  -4.139  1.00  0.00    -0.083 Cl
ATOM      4  Cl  UNL     1      -3.621   1.244  -2.780  1.00  0.00    -0.083 Cl
ATOM      5  Cl  UNL     1      -1.420  -0.592  -2.412  1.00  0.00    -0.083 Cl
ENDBRANCH   1   2
BRANCH   1   6
ATOM      6  C   UNL     1      -1.804   3.437  -1.327  1.00  0.00    -0.036 A 
ATOM      7  C   UNL     1      -1.798   4.162  -2.518  1.00  0.00     0.006 A 
ATOM      8  C   UNL     1      -2.202   4.051  -0.139  1.00  0.00     0.006 A 
ATOM      9  C   UNL     1      -2.190   5.501  -2.522  1.00  0.00     0.021 A 
ATOM     10  C   UNL     1      -2.595   5.389  -0.143  1.00  0.00     0.021 A 
ATOM     11  C   UNL     1      -2.588   6.114  -1.334  1.00  0.00     0.041 A 
ATOM     12  Cl  UNL     1      -3.072   7.766  -1.339  1.00  0.00    -0.084 Cl
ENDBRANCH   1   6
BRANCH   1  13
ATOM     13  C   UNL     1       0.073   1.811  -0.831  1.00  0.00    -0.036 A 
ATOM     14  C   UNL     1       1.077   2.387  -1.558  1.00  0.00     0.006 A 
ATOM     15  C   UNL     1       0.272   1.071   0.301  1.00  0.00     0.006 A 
ATOM     16  C   UNL     1       2.387   2.209  -1.116  1.00  0.00     0.021 A 
ATOM     17  C   UNL     1       1.583   0.893   0.743  1.00  0.00     0.021 A 
ATOM     18  C   UNL     1       2.641   1.463   0.034  1.00  0.00     0.041 A 
ATOM     19  Cl  UNL     1       4.259   1.243   0.579  1.00  0.00    -0.084 Cl
ENDBRANCH   1  13
TORSDOF 3
ENDMDL
MODEL 4
REMARK VINA RESULT:    -5.817      2.754      4.156
REMARK INTER + INTRA:          -7.465
REMARK INTER:                  -7.079
REMARK INTRA:                  -0.386
REMARK UNBOUND:                -0.628
REMARK SMILES Clc1ccc(C(c2ccc(Cl)cc2)C(Cl)(Cl)Cl)cc1
REMARK SMILES IDX 6 1 14 2 15 3 16 4 17 5 5 6 4 7 18 8 3 9 19 10 2 11 1 12
REMARK SMILES IDX 7 13 8 14 13 15 9 16 12 17 10 18 11 19
REMARK H PARENT
REMARK Flexibility Score: inf
ROOT
ATOM      1  C   UNL     1      -4.764   4.108  -1.675  1.00  0.00     0.101 C 
ENDROOT
BRANCH   1   2
ATOM      2  C   UNL     1      -5.661   3.260  -2.671  1.00  0.00     0.201 C 
ATOM      3  Cl  UNL     1      -5.427   3.665  -4.402  1.00  0.00    -0.083 Cl
ATOM      4  Cl  UNL     1      -7.413   3.565  -2.309  1.00  0.00    -0.083 Cl
ATOM      5  Cl  UNL     1      -5.416   1.484  -2.467  1.00  0.00    -0.083 Cl
ENDBRANCH   1   2
BRANCH   1   6
ATOM      6  C   UNL     1      -4.587   5.545  -2.032  1.00  0.00    -0.036 A 
ATOM      7  C   UNL     1      -3.344   6.156  -1.865  1.00  0.00     0.006 A 
ATOM      8  C   UNL     1      -5.663   6.279  -2.530  1.00  0.00     0.006 A 
ATOM      9  C   UNL     1      -3.178   7.501  -2.197  1.00  0.00     0.021 A 
ATOM     10  C   UNL     1      -5.497   7.623  -2.863  1.00  0.00     0.021 A 
ATOM     11  C   UNL     1      -4.255   8.234  -2.696  1.00  0.00     0.041 A 
ATOM     12  Cl  UNL     1      -4.050   9.894  -3.106  1.00  0.00    -0.084 Cl
ENDBRANCH   1   6
BRANCH   1  13
ATOM     13  C   UNL     1      -3.450   3.442  -1.196  1.00  0.00    -0.036 A 
ATOM     14  C   UNL     1      -2.523   3.103  -2.142  1.00  0.00     0.006 A 
ATOM     15  C   UNL     1      -3.292   3.231   0.145  1.00  0.00     0.006 A 
ATOM     16  C   UNL     1      -1.341   2.502  -1.711  1.00  0.00     0.021 A 
ATOM     17  C   UNL     1      -2.110   2.629   0.576  1.00  0.00     0.021 A 
ATOM     18  C   UNL     1      -1.134   2.265  -0.352  1.00  0.00     0.041 A 
ATOM     19  Cl  UNL     1       0.325   1.523   0.181  1.00  0.00    -0.084 Cl
ENDBRANCH   1  13
TORSDOF 3
ENDMDL
MODEL 5
REMARK VINA RESULT:    -5.787      2.850      3.924
REMARK INTER + INTRA:          -7.429
REMARK INTER:                  -6.822
REMARK INTRA:                  -0.607
REMARK UNBOUND:                -0.628
REMARK SMILES Clc1ccc(C(c2ccc(Cl)cc2)C(Cl)(Cl)Cl)cc1
REMARK SMILES IDX 6 1 14 2 15 3 16 4 17 5 5 6 4 7 18 8 3 9 19 10 2 11 1 12
REMARK SMILES IDX 7 13 8 14 13 15 9 16 12 17 10 18 11 19
REMARK H PARENT
REMARK Flexibility Score: inf
ROOT
ATOM      1  C   UNL     1      -2.343   4.651  -1.792  1.00  0.00     0.101 C 
ENDROOT
BRANCH   1   2
ATOM      2  C   UNL     1      -3.391   3.468  -1.924  1.00  0.00     0.201 C 
ATOM      3  Cl  UNL     1      -5.031   3.863  -1.314  1.00  0.00    -0.083 Cl
ATOM      4  Cl  UNL     1      -2.817   2.045  -0.957  1.00  0.00    -0.083 Cl
ATOM      5  Cl  UNL     1      -3.547   2.881  -3.624  1.00  0.00    -0.083 Cl
ENDBRANCH   1   2
BRANCH   1   6
ATOM      6  C   UNL     1      -2.881   6.021  -2.031  1.00  0.00    -0.036 A 
ATOM      7  C   UNL     1      -3.881   6.220  -2.982  1.00  0.00     0.006 A 
ATOM      8  C   UNL     1      -2.382   7.103  -1.306  1.00  0.00     0.006 A 
ATOM      9  C   UNL     1      -4.384   7.502  -3.208  1.00  0.00     0.021 A 
ATOM     10  C   UNL     1      -2.885   8.384  -1.531  1.00  0.00     0.021 A 
ATOM     11  C   UNL     1      -3.886   8.584  -2.482  1.00  0.00     0.041 A 
ATOM     12  Cl  UNL     1      -4.506  10.166  -2.760  1.00  0.00    -0.084 Cl
ENDBRANCH   1   6
BRANCH   1  13
ATOM     13  C   UNL     1      -0.962   4.424  -2.457  1.00  0.00    -0.036 A 
ATOM     14  C   UNL     1       0.032   3.875  -1.697  1.00  0.00     0.006 A 
ATOM     15  C   UNL     1      -0.817   4.787  -3.767  1.00  0.00     0.006 A 
ATOM     16  C   UNL     1       1.275   3.672  -2.297  1.00  0.00     0.021 A 
ATOM     17  C   UNL     1       0.427   4.585  -4.366  1.00  0.00     0.021 A 
ATOM     18  C   UNL     1       1.472   4.027  -3.631  1.00  0.00     0.041 A 
ATOM     19  Cl  UNL     1       3.007   3.777  -4.371  1.00  0.00    -0.084 Cl
ENDBRANCH   1  13
TORSDOF 3
ENDMDL
