MODEL 1
REMARK VINA RESULT:    -6.544      0.000      0.000
REMARK INTER + INTRA:          -8.281
REMARK INTER:                  -7.692
REMARK INTRA:                  -0.590
REMARK UNBOUND:                -0.590
REMARK SMILES Clc1ccc(C(c2ccc(Cl)cc2)C(Cl)(Cl)Cl)cc1
REMARK SMILES IDX 6 1 14 2 15 3 16 4 17 5 5 6 4 7 18 8 3 9 19 10 2 11 1 12
REMARK SMILES IDX 7 13 8 14 13 15 9 16 12 17 10 18 11 19
REMARK H PARENT
REMARK Flexibility Score: inf
ROOT
ATOM      1  C   UNL     1      -1.363   1.633  -1.475  1.00  0.00     0.101 C 
ENDROOT
BRANCH   1   2
ATOM      2  C   UNL     1      -1.695   0.664  -2.686  1.00  0.00     0.201 C 
ATOM      3  Cl  UNL     1      -1.041   1.205  -4.266  1.00  0.00    -0.083 Cl
ATOM      4  Cl  UNL     1      -3.494   0.554  -2.891  1.00  0.00    -0.083 Cl
ATOM      5  Cl  UNL     1      -1.127  -1.023  -2.387  1.00  0.00    -0.083 Cl
ENDBRANCH   1   2
BRANCH   1   6
ATOM      6  C   UNL     1      -1.894   3.021  -1.595  1.00  0.00    -0.036 A 
ATOM      7  C   UNL     1      -2.243   3.735  -0.449  1.00  0.00     0.006 A 
ATOM      8  C   UNL     1      -2.044   3.605  -2.853  1.00  0.00     0.006 A 
ATOM      9  C   UNL     1      -2.742   5.033  -0.561  1.00  0.00     0.021 A 
ATOM     10  C   UNL     1      -2.542   4.903  -2.965  1.00  0.00     0.021 A 
ATOM     11  C   UNL     1      -2.891   5.617  -1.819  1.00  0.00     0.041 A 
ATOM     12  Cl  UNL     1      -3.506   7.219  -1.958  1.00  0.00    -0.084 Cl
ENDBRANCH   1   6
BRANCH   1  13
ATOM     13  C   UNL     1       0.091   1.592  -0.940  1.00  0.00    -0.036 A 
ATOM     14  C   UNL     1       0.342   0.837   0.172  1.00  0.00     0.006 A 
ATOM     15  C   UNL     1       1.039   2.313  -1.609  1.00  0.00     0.006 A 
ATOM     16  C   UNL     1       1.650   0.802   0.654  1.00  0.00     0.021 A 
ATOM     17  C   UNL     1       2.347   2.279  -1.126  1.00  0.00     0.021 A 
ATOM     18  C   UNL     1       2.653   1.522   0.005  1.00  0.00     0.041 A 
ATOM     19  Cl  UNL     1       4.268   1.479   0.600  1.00  0.00    -0.084 Cl
ENDBRANCH   1  13
TORSDOF 3
ENDMDL
MODEL 2
REMARK VINA RESULT:    -6.524      0.128      1.581
REMARK INTER + INTRA:          -8.258
REMARK INTER:                  -7.634
REMARK INTRA:                  -0.624
REMARK UNBOUND:                -0.590
REMARK SMILES Clc1ccc(C(c2ccc(Cl)cc2)C(Cl)(Cl)Cl)cc1
REMARK SMILES IDX 6 1 14 2 15 3 16 4 17 5 5 6 4 7 18 8 3 9 19 10 2 11 1 12
REMARK SMILES IDX 7 13 8 14 13 15 9 16 12 17 10 18 11 19
REMARK H PARENT
REMARK Flexibility Score: inf
ROOT
ATOM      1  C   UNL     1      -1.342   1.644  -1.556  1.00  0.00     0.101 C 
ENDROOT
BRANCH   1   2
ATOM      2  C   UNL     1      -1.668   0.684  -2.776  1.00  0.00     0.201 C 
ATOM      3  Cl  UNL     1      -3.412   0.563  -3.174  1.00  0.00    -0.083 Cl
ATOM      4  Cl  UNL     1      -1.119  -0.999  -2.379  1.00  0.00    -0.083 Cl
ATOM      5  Cl  UNL     1      -0.778   1.156  -4.273  1.00  0.00    -0.083 Cl
ENDBRANCH   1   2
BRANCH   1   6
ATOM      6  C   UNL     1      -1.898   3.025  -1.655  1.00  0.00    -0.036 A 
ATOM      7  C   UNL     1      -2.033   3.635  -2.901  1.00  0.00     0.006 A 
ATOM      8  C   UNL     1      -2.281   3.707  -0.499  1.00  0.00     0.006 A 
ATOM      9  C   UNL     1      -2.551   4.926  -2.994  1.00  0.00     0.021 A 
ATOM     10  C   UNL     1      -2.800   4.998  -0.591  1.00  0.00     0.021 A 
ATOM     11  C   UNL     1      -2.935   5.608  -1.838  1.00  0.00     0.041 A 
ATOM     12  Cl  UNL     1      -3.575   7.202  -1.951  1.00  0.00    -0.084 Cl
ENDBRANCH   1   6
BRANCH   1  13
ATOM     13  C   UNL     1       0.116   1.621  -1.033  1.00  0.00    -0.036 A 
ATOM     14  C   UNL     1       0.384   0.880   0.084  1.00  0.00     0.006 A 
ATOM     15  C   UNL     1       1.053   2.344  -1.718  1.00  0.00     0.006 A 
ATOM     16  C   UNL     1       1.696   0.861   0.554  1.00  0.00     0.021 A 
ATOM     17  C   UNL     1       2.365   2.325  -1.247  1.00  0.00     0.021 A 
ATOM     18  C   UNL     1       2.687   1.582  -0.111  1.00  0.00     0.041 A 
ATOM     19  Cl  UNL     1       4.307   1.559   0.471  1.00  0.00    -0.084 Cl
ENDBRANCH   1  13
TORSDOF 3
ENDMDL
MODEL 3
REMARK VINA RESULT:    -6.453      2.330      4.686
REMARK INTER + INTRA:          -8.174
REMARK INTER:                  -7.594
REMARK INTRA:                  -0.581
REMARK UNBOUND:                -0.590
REMARK SMILES Clc1ccc(C(c2ccc(Cl)cc2)C(Cl)(Cl)Cl)cc1
REMARK SMILES IDX 6 1 14 2 15 3 16 4 17 5 5 6 4 7 18 8 3 9 19 10 2 11 1 12
REMARK SMILES IDX 7 13 8 14 13 15 9 16 12 17 10 18 11 19
REMARK H PARENT
REMARK Flexibility Score: inf
ROOT
ATOM      1  C   UNL     1      -0.143   1.460  -1.720  1.00  0.00     0.101 C 
ENDROOT
BRANCH   1   2
ATOM      2  C   UNL     1       0.234   0.899  -0.285  1.00  0.00     0.201 C 
ATOM      3  Cl  UNL     1      -0.819   1.494   1.039  1.00  0.00    -0.083 Cl
ATOM      4  Cl  UNL     1       1.922   1.416   0.136  1.00  0.00    -0.083 Cl
ATOM      5  Cl  UNL     1       0.241  -0.904  -0.236  1.00  0.00    -0.083 Cl
ENDBRANCH   1   2
BRANCH   1   6
ATOM      6  C   UNL     1      -0.074   2.942  -1.873  1.00  0.00    -0.036 A 
ATOM      7  C   UNL     1      -0.590   3.770  -0.877  1.00  0.00     0.006 A 
ATOM      8  C   UNL     1       0.504   3.500  -3.014  1.00  0.00     0.006 A 
ATOM      9  C   UNL     1      -0.527   5.156  -1.020  1.00  0.00     0.021 A 
ATOM     10  C   UNL     1       0.568   4.885  -3.157  1.00  0.00     0.021 A 
ATOM     11  C   UNL     1       0.052   5.714  -2.160  1.00  0.00     0.041 A 
ATOM     12  Cl  UNL     1       0.130   7.424  -2.337  1.00  0.00    -0.084 Cl
ENDBRANCH   1   6
BRANCH   1  13
ATOM     13  C   UNL     1      -1.397   0.845  -2.391  1.00  0.00    -0.036 A 
ATOM     14  C   UNL     1      -2.622   1.323  -2.017  1.00  0.00     0.006 A 
ATOM     15  C   UNL     1      -1.208  -0.141  -3.318  1.00  0.00     0.006 A 
ATOM     16  C   UNL     1      -3.751   0.769  -2.620  1.00  0.00     0.021 A 
ATOM     17  C   UNL     1      -2.337  -0.696  -3.920  1.00  0.00     0.021 A 
ATOM     18  C   UNL     1      -3.609  -0.241  -3.572  1.00  0.00     0.041 A 
ATOM     19  Cl  UNL     1      -5.002  -0.926  -4.315  1.00  0.00    -0.084 Cl
ENDBRANCH   1  13
TORSDOF 3
ENDMDL
MODEL 4
REMARK VINA RESULT:    -6.422      2.332      4.829
REMARK INTER + INTRA:          -8.138
REMARK INTER:                  -7.552
REMARK INTRA:                  -0.586
REMARK UNBOUND:                -0.590
REMARK SMILES Clc1ccc(C(c2ccc(Cl)cc2)C(Cl)(Cl)Cl)cc1
REMARK SMILES IDX 6 1 14 2 15 3 16 4 17 5 5 6 4 7 18 8 3 9 19 10 2 11 1 12
REMARK SMILES IDX 7 13 8 14 13 15 9 16 12 17 10 18 11 19
REMARK H PARENT
REMARK Flexibility Score: inf
ROOT
ATOM      1  C   UNL     1      -0.200   1.497  -1.698  1.00  0.00     0.101 C 
ENDROOT
BRANCH   1   2
ATOM      2  C   UNL     1       0.171   0.955  -0.254  1.00  0.00     0.201 C 
ATOM      3  Cl  UNL     1      -0.906   1.541   1.054  1.00  0.00    -0.083 Cl
ATOM      4  Cl  UNL     1       1.845   1.503   0.181  1.00  0.00    -0.083 Cl
ATOM      5  Cl  UNL     1       0.209  -0.848  -0.191  1.00  0.00    -0.083 Cl
ENDBRANCH   1   2
BRANCH   1   6
ATOM      6  C   UNL     1      -0.126   2.977  -1.870  1.00  0.00    -0.036 A 
ATOM      7  C   UNL     1       0.462   3.517  -3.013  1.00  0.00     0.006 A 
ATOM      8  C   UNL     1      -0.643   3.821  -0.886  1.00  0.00     0.006 A 
ATOM      9  C   UNL     1       0.532   4.901  -3.174  1.00  0.00     0.021 A 
ATOM     10  C   UNL     1      -0.573   5.204  -1.047  1.00  0.00     0.021 A 
ATOM     11  C   UNL     1       0.014   5.744  -2.191  1.00  0.00     0.041 A 
ATOM     12  Cl  UNL     1       0.101   7.452  -2.389  1.00  0.00    -0.084 Cl
ENDBRANCH   1   6
BRANCH   1  13
ATOM     13  C   UNL     1      -1.454   0.878  -2.364  1.00  0.00    -0.036 A 
ATOM     14  C   UNL     1      -1.268  -0.140  -3.256  1.00  0.00     0.006 A 
ATOM     15  C   UNL     1      -2.676   1.387  -2.022  1.00  0.00     0.006 A 
ATOM     16  C   UNL     1      -2.398  -0.696  -3.856  1.00  0.00     0.021 A 
ATOM     17  C   UNL     1      -3.806   0.831  -2.623  1.00  0.00     0.021 A 
ATOM     18  C   UNL     1      -3.667  -0.211  -3.540  1.00  0.00     0.041 A 
ATOM     19  Cl  UNL     1      -5.061  -0.896  -4.282  1.00  0.00    -0.084 Cl
ENDBRANCH   1  13
TORSDOF 3
ENDMDL
MODEL 5
REMARK VINA RESULT:    -6.102      1.197      5.373
REMARK INTER + INTRA:          -7.762
REMARK INTER:                  -7.117
REMARK INTRA:                  -0.645
REMARK UNBOUND:                -0.590
REMARK SMILES Clc1ccc(C(c2ccc(Cl)cc2)C(Cl)(Cl)Cl)cc1
REMARK SMILES IDX 6 1 14 2 15 3 16 4 17 5 5 6 4 7 18 8 3 9 19 10 2 11 1 12
REMARK SMILES IDX 7 13 8 14 13 15 9 16 12 17 10 18 11 19
REMARK H PARENT
REMARK Flexibility Score: inf
ROOT
ATOM      1  C   UNL     1      -1.537   2.681  -2.426  1.00  0.00     0.101 C 
ENDROOT
BRANCH   1   2
ATOM      2  C   UNL     1      -2.729   1.655  -2.630  1.00  0.00     0.201 C 
ATOM      3  Cl  UNL     1      -2.227  -0.067  -2.642  1.00  0.00    -0.083 Cl
ATOM      4  Cl  UNL     1      -3.520   1.965  -4.234  1.00  0.00    -0.083 Cl
ATOM      5  Cl  UNL     1      -4.025   1.857  -1.392  1.00  0.00    -0.083 Cl
ENDBRANCH   1   2
BRANCH   1   6
ATOM      6  C   UNL     1      -0.454   2.236  -1.502  1.00  0.00    -0.036 A 
ATOM      7  C   UNL     1      -0.777   1.609  -0.299  1.00  0.00     0.006 A 
ATOM      8  C   UNL     1       0.883   2.449  -1.840  1.00  0.00     0.006 A 
ATOM      9  C   UNL     1       0.235   1.194   0.566  1.00  0.00     0.021 A 
ATOM     10  C   UNL     1       1.896   2.034  -0.976  1.00  0.00     0.021 A 
ATOM     11  C   UNL     1       1.572   1.406   0.227  1.00  0.00     0.041 A 
ATOM     12  Cl  UNL     1       2.822   0.895   1.294  1.00  0.00    -0.084 Cl
ENDBRANCH   1   6
BRANCH   1  13
ATOM     13  C   UNL     1      -1.935   4.163  -2.214  1.00  0.00    -0.036 A 
ATOM     14  C   UNL     1      -2.135   4.595  -0.933  1.00  0.00     0.006 A 
ATOM     15  C   UNL     1      -2.064   4.955  -3.321  1.00  0.00     0.006 A 
ATOM     16  C   UNL     1      -2.495   5.929  -0.743  1.00  0.00     0.021 A 
ATOM     17  C   UNL     1      -2.424   6.289  -3.131  1.00  0.00     0.021 A 
ATOM     18  C   UNL     1      -2.638   6.777  -1.842  1.00  0.00     0.041 A 
ATOM     19  Cl  UNL     1      -3.083   8.423  -1.608  1.00  0.00    -0.084 Cl
ENDBRANCH   1  13
TORSDOF 3
ENDMDL
