MODEL 1
REMARK VINA RESULT:    -6.525      0.000      0.000
REMARK INTER + INTRA:          -8.277
REMARK INTER:                  -7.669
REMARK INTRA:                  -0.608
REMARK UNBOUND:                -0.608
REMARK SMILES Clc1ccc(C(c2ccc(Cl)cc2)C(Cl)(Cl)Cl)cc1
REMARK SMILES IDX 6 1 14 2 15 3 16 4 17 5 5 6 4 7 18 8 3 9 19 10 2 11 1 12
REMARK SMILES IDX 7 13 8 14 13 15 9 16 12 17 10 18 11 19
REMARK H PARENT
REMARK Flexibility Score: inf
ROOT
ATOM      1  C   UNL     1      -1.341   1.638  -1.509  1.00  0.00     0.101 C 
ENDROOT
BRANCH   1   2
ATOM      2  C   UNL     1      -1.664   0.679  -2.730  1.00  0.00     0.201 C 
ATOM      3  Cl  UNL     1      -3.410   0.535  -3.114  1.00  0.00    -0.083 Cl
ATOM      4  Cl  UNL     1      -1.088  -0.998  -2.344  1.00  0.00    -0.083 Cl
ATOM      5  Cl  UNL     1      -0.793   1.168  -4.232  1.00  0.00    -0.083 Cl
ENDBRANCH   1   2
BRANCH   1   6
ATOM      6  C   UNL     1      -1.870   3.028  -1.623  1.00  0.00    -0.036 A 
ATOM      7  C   UNL     1      -1.994   3.626  -2.877  1.00  0.00     0.006 A 
ATOM      8  C   UNL     1      -2.239   3.731  -0.475  1.00  0.00     0.006 A 
ATOM      9  C   UNL     1      -2.488   4.927  -2.983  1.00  0.00     0.021 A 
ATOM     10  C   UNL     1      -2.733   5.031  -0.582  1.00  0.00     0.021 A 
ATOM     11  C   UNL     1      -2.857   5.629  -1.835  1.00  0.00     0.041 A 
ATOM     12  Cl  UNL     1      -3.465   7.234  -1.967  1.00  0.00    -0.084 Cl
ENDBRANCH   1   6
BRANCH   1  13
ATOM     13  C   UNL     1       0.107   1.591  -0.961  1.00  0.00    -0.036 A 
ATOM     14  C   UNL     1       0.344   0.844   0.159  1.00  0.00     0.006 A 
ATOM     15  C   UNL     1       1.067   2.300  -1.629  1.00  0.00     0.006 A 
ATOM     16  C   UNL     1       1.648   0.803   0.652  1.00  0.00     0.021 A 
ATOM     17  C   UNL     1       2.370   2.260  -1.135  1.00  0.00     0.021 A 
ATOM     18  C   UNL     1       2.661   1.510   0.005  1.00  0.00     0.041 A 
ATOM     19  Cl  UNL     1       4.270   1.461   0.615  1.00  0.00    -0.084 Cl
ENDBRANCH   1  13
TORSDOF 3
ENDMDL
MODEL 2
REMARK VINA RESULT:    -6.517      0.102      1.583
REMARK INTER + INTRA:          -8.268
REMARK INTER:                  -7.667
REMARK INTRA:                  -0.601
REMARK UNBOUND:                -0.608
REMARK SMILES Clc1ccc(C(c2ccc(Cl)cc2)C(Cl)(Cl)Cl)cc1
REMARK SMILES IDX 6 1 14 2 15 3 16 4 17 5 5 6 4 7 18 8 3 9 19 10 2 11 1 12
REMARK SMILES IDX 7 13 8 14 13 15 9 16 12 17 10 18 11 19
REMARK H PARENT
REMARK Flexibility Score: inf
ROOT
ATOM      1  C   UNL     1      -1.365   1.639  -1.490  1.00  0.00     0.101 C 
ENDROOT
BRANCH   1   2
ATOM      2  C   UNL     1      -1.709   0.657  -2.688  1.00  0.00     0.201 C 
ATOM      3  Cl  UNL     1      -1.064   1.180  -4.278  1.00  0.00    -0.083 Cl
ATOM      4  Cl  UNL     1      -3.510   0.551  -2.879  1.00  0.00    -0.083 Cl
ATOM      5  Cl  UNL     1      -1.144  -1.027  -2.374  1.00  0.00    -0.083 Cl
ENDBRANCH   1   2
BRANCH   1   6
ATOM      6  C   UNL     1      -1.900   3.025  -1.618  1.00  0.00    -0.036 A 
ATOM      7  C   UNL     1      -2.275   3.735  -0.478  1.00  0.00     0.006 A 
ATOM      8  C   UNL     1      -2.027   3.611  -2.878  1.00  0.00     0.006 A 
ATOM      9  C   UNL     1      -2.776   5.032  -0.597  1.00  0.00     0.021 A 
ATOM     10  C   UNL     1      -2.528   4.907  -2.997  1.00  0.00     0.021 A 
ATOM     11  C   UNL     1      -2.903   5.617  -1.857  1.00  0.00     0.041 A 
ATOM     12  Cl  UNL     1      -3.522   7.217  -2.004  1.00  0.00    -0.084 Cl
ENDBRANCH   1   6
BRANCH   1  13
ATOM     13  C   UNL     1       0.094   1.605  -0.970  1.00  0.00    -0.036 A 
ATOM     14  C   UNL     1       0.352   0.889   0.165  1.00  0.00     0.006 A 
ATOM     15  C   UNL     1       1.040   2.294  -1.676  1.00  0.00     0.006 A 
ATOM     16  C   UNL     1       1.665   0.860   0.634  1.00  0.00     0.021 A 
ATOM     17  C   UNL     1       2.354   2.265  -1.206  1.00  0.00     0.021 A 
ATOM     18  C   UNL     1       2.666   1.547  -0.052  1.00  0.00     0.041 A 
ATOM     19  Cl  UNL     1       4.287   1.512   0.527  1.00  0.00    -0.084 Cl
ENDBRANCH   1  13
TORSDOF 3
ENDMDL
MODEL 3
REMARK VINA RESULT:    -6.499      0.111      1.583
REMARK INTER + INTRA:          -8.247
REMARK INTER:                  -7.655
REMARK INTRA:                  -0.591
REMARK UNBOUND:                -0.608
REMARK SMILES Clc1ccc(C(c2ccc(Cl)cc2)C(Cl)(Cl)Cl)cc1
REMARK SMILES IDX 6 1 14 2 15 3 16 4 17 5 5 6 4 7 18 8 3 9 19 10 2 11 1 12
REMARK SMILES IDX 7 13 8 14 13 15 9 16 12 17 10 18 11 19
REMARK H PARENT
REMARK Flexibility Score: inf
ROOT
ATOM      1  C   UNL     1      -1.383   1.639  -1.481  1.00  0.00     0.101 C 
ENDROOT
BRANCH   1   2
ATOM      2  C   UNL     1      -1.720   0.656  -2.679  1.00  0.00     0.201 C 
ATOM      3  Cl  UNL     1      -1.074   1.180  -4.268  1.00  0.00    -0.083 Cl
ATOM      4  Cl  UNL     1      -3.521   0.544  -2.875  1.00  0.00    -0.083 Cl
ATOM      5  Cl  UNL     1      -1.151  -1.027  -2.363  1.00  0.00    -0.083 Cl
ENDBRANCH   1   2
BRANCH   1   6
ATOM      6  C   UNL     1      -1.925   3.023  -1.609  1.00  0.00    -0.036 A 
ATOM      7  C   UNL     1      -2.044   3.611  -2.867  1.00  0.00     0.006 A 
ATOM      8  C   UNL     1      -2.312   3.729  -0.469  1.00  0.00     0.006 A 
ATOM      9  C   UNL     1      -2.549   4.906  -2.988  1.00  0.00     0.021 A 
ATOM     10  C   UNL     1      -2.818   5.023  -0.589  1.00  0.00     0.021 A 
ATOM     11  C   UNL     1      -2.937   5.611  -1.848  1.00  0.00     0.041 A 
ATOM     12  Cl  UNL     1      -3.560   7.209  -1.995  1.00  0.00    -0.084 Cl
ENDBRANCH   1   6
BRANCH   1  13
ATOM     13  C   UNL     1       0.075   1.612  -0.959  1.00  0.00    -0.036 A 
ATOM     14  C   UNL     1       1.014   2.329  -1.646  1.00  0.00     0.006 A 
ATOM     15  C   UNL     1       0.341   0.872   0.159  1.00  0.00     0.006 A 
ATOM     16  C   UNL     1       2.327   2.304  -1.177  1.00  0.00     0.021 A 
ATOM     17  C   UNL     1       1.654   0.845   0.628  1.00  0.00     0.021 A 
ATOM     18  C   UNL     1       2.648   1.562  -0.040  1.00  0.00     0.041 A 
ATOM     19  Cl  UNL     1       4.268   1.530   0.539  1.00  0.00    -0.084 Cl
ENDBRANCH   1  13
TORSDOF 3
ENDMDL
MODEL 4
REMARK VINA RESULT:    -6.433      2.320      4.633
REMARK INTER + INTRA:          -8.169
REMARK INTER:                  -7.590
REMARK INTRA:                  -0.579
REMARK UNBOUND:                -0.608
REMARK SMILES Clc1ccc(C(c2ccc(Cl)cc2)C(Cl)(Cl)Cl)cc1
REMARK SMILES IDX 6 1 14 2 15 3 16 4 17 5 5 6 4 7 18 8 3 9 19 10 2 11 1 12
REMARK SMILES IDX 7 13 8 14 13 15 9 16 12 17 10 18 11 19
REMARK H PARENT
REMARK Flexibility Score: inf
ROOT
ATOM      1  C   UNL     1      -0.136   1.472  -1.695  1.00  0.00     0.101 C 
ENDROOT
BRANCH   1   2
ATOM      2  C   UNL     1       0.226   0.938  -0.246  1.00  0.00     0.201 C 
ATOM      3  Cl  UNL     1      -0.843   1.555   1.055  1.00  0.00    -0.083 Cl
ATOM      4  Cl  UNL     1       1.908   1.465   0.184  1.00  0.00    -0.083 Cl
ATOM      5  Cl  UNL     1       0.235  -0.864  -0.165  1.00  0.00    -0.083 Cl
ENDBRANCH   1   2
BRANCH   1   6
ATOM      6  C   UNL     1      -0.077   2.951  -1.872  1.00  0.00    -0.036 A 
ATOM      7  C   UNL     1       0.539   3.495  -2.998  1.00  0.00     0.006 A 
ATOM      8  C   UNL     1      -0.637   3.792  -0.909  1.00  0.00     0.006 A 
ATOM      9  C   UNL     1       0.595   4.879  -3.163  1.00  0.00     0.021 A 
ATOM     10  C   UNL     1      -0.581   5.176  -1.074  1.00  0.00     0.021 A 
ATOM     11  C   UNL     1       0.035   5.719  -2.200  1.00  0.00     0.041 A 
ATOM     12  Cl  UNL     1       0.104   7.428  -2.403  1.00  0.00    -0.084 Cl
ENDBRANCH   1   6
BRANCH   1  13
ATOM     13  C   UNL     1      -1.377   0.836  -2.373  1.00  0.00    -0.036 A 
ATOM     14  C   UNL     1      -2.611   1.299  -2.010  1.00  0.00     0.006 A 
ATOM     15  C   UNL     1      -1.166  -0.152  -3.293  1.00  0.00     0.006 A 
ATOM     16  C   UNL     1      -3.727   0.725  -2.619  1.00  0.00     0.021 A 
ATOM     17  C   UNL     1      -2.283  -0.726  -3.901  1.00  0.00     0.021 A 
ATOM     18  C   UNL     1      -3.563  -0.287  -3.565  1.00  0.00     0.041 A 
ATOM     19  Cl  UNL     1      -4.940  -0.996  -4.315  1.00  0.00    -0.084 Cl
ENDBRANCH   1  13
TORSDOF 3
ENDMDL
MODEL 5
REMARK VINA RESULT:    -6.079      1.179      5.439
REMARK INTER + INTRA:          -7.753
REMARK INTER:                  -7.105
REMARK INTRA:                  -0.648
REMARK UNBOUND:                -0.608
REMARK SMILES Clc1ccc(C(c2ccc(Cl)cc2)C(Cl)(Cl)Cl)cc1
REMARK SMILES IDX 6 1 14 2 15 3 16 4 17 5 5 6 4 7 18 8 3 9 19 10 2 11 1 12
REMARK SMILES IDX 7 13 8 14 13 15 9 16 12 17 10 18 11 19
REMARK H PARENT
REMARK Flexibility Score: inf
ROOT
ATOM      1  C   UNL     1      -1.568   2.665  -2.435  1.00  0.00     0.101 C 
ENDROOT
BRANCH   1   2
ATOM      2  C   UNL     1      -2.742   1.620  -2.647  1.00  0.00     0.201 C 
ATOM      3  Cl  UNL     1      -2.215  -0.094  -2.638  1.00  0.00    -0.083 Cl
ATOM      4  Cl  UNL     1      -3.514   1.906  -4.265  1.00  0.00    -0.083 Cl
ATOM      5  Cl  UNL     1      -4.059   1.814  -1.429  1.00  0.00    -0.083 Cl
ENDBRANCH   1   2
BRANCH   1   6
ATOM      6  C   UNL     1      -0.479   2.233  -1.513  1.00  0.00    -0.036 A 
ATOM      7  C   UNL     1       0.854   2.470  -1.849  1.00  0.00     0.006 A 
ATOM      8  C   UNL     1      -0.792   1.591  -0.314  1.00  0.00     0.006 A 
ATOM      9  C   UNL     1       1.874   2.065  -0.987  1.00  0.00     0.021 A 
ATOM     10  C   UNL     1       0.227   1.187   0.548  1.00  0.00     0.021 A 
ATOM     11  C   UNL     1       1.560   1.424   0.211  1.00  0.00     0.041 A 
ATOM     12  Cl  UNL     1       2.818   0.924   1.275  1.00  0.00    -0.084 Cl
ENDBRANCH   1   6
BRANCH   1  13
ATOM     13  C   UNL     1      -1.992   4.139  -2.214  1.00  0.00    -0.036 A 
ATOM     14  C   UNL     1      -2.174   4.567  -0.928  1.00  0.00     0.006 A 
ATOM     15  C   UNL     1      -2.161   4.928  -3.317  1.00  0.00     0.006 A 
ATOM     16  C   UNL     1      -2.556   5.893  -0.730  1.00  0.00     0.021 A 
ATOM     17  C   UNL     1      -2.544   6.255  -3.119  1.00  0.00     0.021 A 
ATOM     18  C   UNL     1      -2.741   6.737  -1.825  1.00  0.00     0.041 A 
ATOM     19  Cl  UNL     1      -3.215   8.374  -1.580  1.00  0.00    -0.084 Cl
ENDBRANCH   1  13
TORSDOF 3
ENDMDL
