MODEL 1
REMARK VINA RESULT:    -7.446      0.000      0.000
REMARK INTER + INTRA:         -11.436
REMARK INTER:                 -10.929
REMARK INTRA:                  -0.507
REMARK UNBOUND:                -0.507
REMARK SMILES CC1(C)C(C=C(Br)Br)C1C(=O)OC(C#N)c1cccc(Oc2ccccc2)c1
REMARK SMILES IDX 13 1 12 2 10 3 11 4 9 5 4 6 2 7 1 8 3 9 5 10 7 11 6 12 8 13
REMARK SMILES IDX 16 14 28 15 17 16 20 17 18 18 19 19 21 20 22 21 23 22 27 23
REMARK SMILES IDX 24 24 26 25 25 26 14 27 15 28
REMARK H PARENT
REMARK Flexibility Score: inf
ROOT
ATOM      1  C   UNL     1       0.801   3.411  -1.989  1.00  0.00     0.309 C
ENDROOT
BRANCH   1   2
ATOM      2  O   UNL     1      -0.390   4.106  -2.383  1.00  0.00    -0.442 OA
BRANCH   2   3
ATOM      3  C   UNL     1      -1.090   4.681  -1.369  1.00  0.00     0.311 C
ATOM      4  O   UNL     1      -1.878   4.131  -0.613  1.00  0.00    -0.252 OA
BRANCH   3   5
ATOM      5  C   UNL     1      -0.789   6.132  -1.258  1.00  0.00     0.113 C
ATOM      6  C   UNL     1      -1.861   7.109  -1.622  1.00  0.00     0.035 C
ATOM      7  C   UNL     1      -0.647   6.964  -2.492  1.00  0.00    -0.014 C
ATOM      8  C   UNL     1      -0.836   6.330  -3.830  1.00  0.00     0.012 C
ATOM      9  C   UNL     1       0.404   8.023  -2.478  1.00  0.00     0.012 C
BRANCH   6  10
ATOM     10  C   UNL     1      -3.149   6.591  -2.059  1.00  0.00     0.001 C
ATOM     11  Br  UNL     1      -4.207   9.146  -2.718  1.00  0.00    -0.043 Br
ATOM     12  C   UNL     1      -4.201   7.283  -2.527  1.00  0.00     0.057 C
ATOM     13  Br  UNL     1      -5.781   6.413  -3.040  1.00  0.00    -0.043 Br
ENDBRANCH   6  10
ENDBRANCH   3   5
ENDBRANCH   2   3
ENDBRANCH   1   2
BRANCH   1  14
ATOM     14  C   UNL     1       0.459   2.034  -1.534  1.00  0.00     0.011 A
ATOM     15  C   UNL     1      -0.277   1.187  -2.363  1.00  0.00     0.055 A
ATOM     16  C   UNL     1       0.877   1.591  -0.279  1.00  0.00     0.009 A
ATOM     17  C   UNL     1      -0.596  -0.101  -1.936  1.00  0.00     0.127 A
ATOM     18  C   UNL     1       0.557   0.302   0.147  1.00  0.00     0.004 A
ATOM     19  C   UNL     1      -0.180  -0.544  -0.681  1.00  0.00     0.047 A
BRANCH  17  20
ATOM     20  O   UNL     1      -1.316  -0.928  -2.744  1.00  0.00    -0.457 OA
BRANCH  20  21
ATOM     21  C   UNL     1      -2.595  -0.530  -3.096  1.00  0.00     0.127 A
ATOM     22  C   UNL     1      -3.297   0.308  -2.249  1.00  0.00     0.047 A
ATOM     23  C   UNL     1      -3.139  -0.982  -4.285  1.00  0.00     0.047 A
ATOM     24  C   UNL     1      -4.586   0.709  -2.602  1.00  0.00     0.004 A
ATOM     25  C   UNL     1      -4.427  -0.582  -4.638  1.00  0.00     0.004 A
ATOM     26  C   UNL     1      -5.150   0.264  -3.798  1.00  0.00     0.000 A
ENDBRANCH  20  21
ENDBRANCH  17  20
ENDBRANCH   1  14
BRANCH   1  27
ATOM     27  C   UNL     1       1.764   3.417  -3.110  1.00  0.00     0.113 C
ATOM     28  N   UNL     1       2.519   3.410  -3.991  1.00  0.00    -0.194 NA
ENDBRANCH   1  27
TORSDOF 8
ENDMDL
MODEL 2
REMARK VINA RESULT:    -7.420      3.839      7.048
REMARK INTER + INTRA:         -11.396
REMARK INTER:                 -10.136
REMARK INTRA:                  -1.260
REMARK UNBOUND:                -0.507
REMARK SMILES CC1(C)C(C=C(Br)Br)C1C(=O)OC(C#N)c1cccc(Oc2ccccc2)c1
REMARK SMILES IDX 13 1 12 2 10 3 11 4 9 5 4 6 2 7 1 8 3 9 5 10 7 11 6 12 8 13
REMARK SMILES IDX 16 14 28 15 17 16 20 17 18 18 19 19 21 20 22 21 23 22 27 23
REMARK SMILES IDX 24 24 26 25 25 26 14 27 15 28
REMARK H PARENT
REMARK Flexibility Score: inf
ROOT
ATOM      1  C   UNL     1      -4.707   1.416  -2.902  1.00  0.00     0.309 C
ENDROOT
BRANCH   1   2
ATOM      2  O   UNL     1      -3.382   1.666  -3.391  1.00  0.00    -0.442 OA
BRANCH   2   3
ATOM      3  C   UNL     1      -2.425   1.801  -2.435  1.00  0.00     0.311 C
ATOM      4  O   UNL     1      -1.837   0.903  -1.848  1.00  0.00    -0.252 OA
BRANCH   3   5
ATOM      5  C   UNL     1      -2.141   3.231  -2.150  1.00  0.00     0.113 C
ATOM      6  C   UNL     1      -1.117   3.558  -1.112  1.00  0.00     0.035 C
ATOM      7  C   UNL     1      -2.568   3.834  -0.850  1.00  0.00    -0.014 C
ATOM      8  C   UNL     1      -3.254   2.982   0.164  1.00  0.00     0.012 C
ATOM      9  C   UNL     1      -3.073   5.238  -0.888  1.00  0.00     0.012 C
BRANCH   6  10
ATOM     10  C   UNL     1      -0.440   2.460  -0.438  1.00  0.00     0.001 C
ATOM     11  Br  UNL     1       2.009   2.811  -1.837  1.00  0.00    -0.043 Br
ATOM     12  C   UNL     1       0.821   2.032  -0.618  1.00  0.00     0.057 C
ATOM     13  Br  UNL     1       1.502   0.586   0.363  1.00  0.00    -0.043 Br
ENDBRANCH   6  10
ENDBRANCH   3   5
ENDBRANCH   2   3
ENDBRANCH   1   2
BRANCH   1  14
ATOM     14  C   UNL     1      -5.479   2.690  -2.852  1.00  0.00     0.011 A
ATOM     15  C   UNL     1      -5.083   3.778  -3.632  1.00  0.00     0.055 A
ATOM     16  C   UNL     1      -6.599   2.795  -2.027  1.00  0.00     0.009 A
ATOM     17  C   UNL     1      -5.806   4.969  -3.585  1.00  0.00     0.127 A
ATOM     18  C   UNL     1      -7.321   3.987  -1.980  1.00  0.00     0.004 A
ATOM     19  C   UNL     1      -6.925   5.074  -2.759  1.00  0.00     0.047 A
BRANCH  17  20
ATOM     20  O   UNL     1      -5.420   6.031  -4.345  1.00  0.00    -0.457 OA
BRANCH  20  21
ATOM     21  C   UNL     1      -4.379   6.814  -3.874  1.00  0.00     0.127 A
ATOM     22  C   UNL     1      -3.095   6.568  -4.323  1.00  0.00     0.047 A
ATOM     23  C   UNL     1      -4.651   7.822  -2.966  1.00  0.00     0.047 A
ATOM     24  C   UNL     1      -2.045   7.356  -3.849  1.00  0.00     0.004 A
ATOM     25  C   UNL     1      -3.602   8.609  -2.492  1.00  0.00     0.004 A
ATOM     26  C   UNL     1      -2.300   8.377  -2.934  1.00  0.00     0.000 A
ENDBRANCH  20  21
ENDBRANCH  17  20
ENDBRANCH   1  14
BRANCH   1  27
ATOM     27  C   UNL     1      -5.355   0.392  -3.745  1.00  0.00     0.113 C
ATOM     28  N   UNL     1      -5.872  -0.414  -4.401  1.00  0.00    -0.194 NA
ENDBRANCH   1  27
TORSDOF 8
ENDMDL
MODEL 3
REMARK VINA RESULT:    -7.365      2.537      5.951
REMARK INTER + INTRA:         -11.316
REMARK INTER:                  -9.861
REMARK INTRA:                  -1.456
REMARK UNBOUND:                -0.507
REMARK SMILES CC1(C)C(C=C(Br)Br)C1C(=O)OC(C#N)c1cccc(Oc2ccccc2)c1
REMARK SMILES IDX 13 1 12 2 10 3 11 4 9 5 4 6 2 7 1 8 3 9 5 10 7 11 6 12 8 13
REMARK SMILES IDX 16 14 28 15 17 16 20 17 18 18 19 19 21 20 22 21 23 22 27 23
REMARK SMILES IDX 24 24 26 25 25 26 14 27 15 28
REMARK H PARENT
REMARK Flexibility Score: inf
ROOT
ATOM      1  C   UNL     1       0.991   3.407  -3.895  1.00  0.00     0.309 C
ENDROOT
BRANCH   1   2
ATOM      2  O   UNL     1       0.689   2.324  -3.004  1.00  0.00    -0.442 OA
BRANCH   2   3
ATOM      3  C   UNL     1      -0.601   1.893  -3.031  1.00  0.00     0.311 C
ATOM      4  O   UNL     1      -1.477   2.236  -3.811  1.00  0.00    -0.252 OA
BRANCH   3   5
ATOM      5  C   UNL     1      -0.863   0.903  -1.954  1.00  0.00     0.113 C
ATOM      6  C   UNL     1      -1.370   1.402  -0.639  1.00  0.00     0.035 C
ATOM      7  C   UNL     1       0.023   0.855  -0.750  1.00  0.00    -0.014 C
ATOM      8  C   UNL     1       1.151   1.825  -0.629  1.00  0.00     0.012 C
ATOM      9  C   UNL     1       0.334  -0.494  -0.192  1.00  0.00     0.012 C
BRANCH   6  10
ATOM     10  C   UNL     1      -1.591   2.832  -0.481  1.00  0.00     0.001 C
ATOM     11  Br  UNL     1      -4.242   2.764  -1.507  1.00  0.00    -0.043 Br
ATOM     12  C   UNL     1      -2.696   3.535  -0.785  1.00  0.00     0.057 C
ATOM     13  Br  UNL     1      -2.773   5.386  -0.499  1.00  0.00    -0.043 Br
ENDBRANCH   6  10
ENDBRANCH   3   5
ENDBRANCH   2   3
ENDBRANCH   1   2
BRANCH   1  14
ATOM     14  C   UNL     1       0.607   4.703  -3.268  1.00  0.00     0.011 A
ATOM     15  C   UNL     1      -0.245   5.579  -3.942  1.00  0.00     0.055 A
ATOM     16  C   UNL     1       1.097   5.040  -2.007  1.00  0.00     0.009 A
ATOM     17  C   UNL     1      -0.605   6.792  -3.355  1.00  0.00     0.127 A
ATOM     18  C   UNL     1       0.737   6.254  -1.420  1.00  0.00     0.004 A
ATOM     19  C   UNL     1      -0.113   7.130  -2.094  1.00  0.00     0.047 A
BRANCH  17  20
ATOM     20  O   UNL     1      -1.435   7.647  -4.013  1.00  0.00    -0.457 OA
BRANCH  20  21
ATOM     21  C   UNL     1      -2.766   7.674  -3.629  1.00  0.00     0.127 A
ATOM     22  C   UNL     1      -3.251   8.781  -2.958  1.00  0.00     0.047 A
ATOM     23  C   UNL     1      -3.575   6.592  -3.928  1.00  0.00     0.047 A
ATOM     24  C   UNL     1      -4.592   8.808  -2.571  1.00  0.00     0.004 A
ATOM     25  C   UNL     1      -4.914   6.619  -3.541  1.00  0.00     0.004 A
ATOM     26  C   UNL     1      -5.424   7.727  -2.863  1.00  0.00     0.000 A
ENDBRANCH  20  21
ENDBRANCH  17  20
ENDBRANCH   1  14
BRANCH   1  27
ATOM     27  C   UNL     1       2.422   3.354  -4.260  1.00  0.00     0.113 C
ATOM     28  N   UNL     1       3.548   3.313  -4.537  1.00  0.00    -0.194 NA
ENDBRANCH   1  27
TORSDOF 8
ENDMDL
MODEL 4
REMARK VINA RESULT:    -7.359      4.387      6.925
REMARK INTER + INTRA:         -11.307
REMARK INTER:                 -10.630
REMARK INTRA:                  -0.677
REMARK UNBOUND:                -0.507
REMARK SMILES CC1(C)C(C=C(Br)Br)C1C(=O)OC(C#N)c1cccc(Oc2ccccc2)c1
REMARK SMILES IDX 13 1 12 2 10 3 11 4 9 5 4 6 2 7 1 8 3 9 5 10 7 11 6 12 8 13
REMARK SMILES IDX 16 14 28 15 17 16 20 17 18 18 19 19 21 20 22 21 23 22 27 23
REMARK SMILES IDX 24 24 26 25 25 26 14 27 15 28
REMARK H PARENT
REMARK Flexibility Score: inf
ROOT
ATOM      1  C   UNL     1      -4.167   1.616  -2.381  1.00  0.00     0.309 C
ENDROOT
BRANCH   1   2
ATOM      2  O   UNL     1      -2.832   1.710  -2.896  1.00  0.00    -0.442 OA
BRANCH   2   3
ATOM      3  C   UNL     1      -1.875   1.097  -2.148  1.00  0.00     0.311 C
ATOM      4  O   UNL     1      -1.301   0.047  -2.402  1.00  0.00    -0.252 OA
BRANCH   3   5
ATOM      5  C   UNL     1      -1.574   1.870  -0.916  1.00  0.00     0.113 C
ATOM      6  C   UNL     1      -0.275   2.607  -0.841  1.00  0.00     0.035 C
ATOM      7  C   UNL     1      -0.507   1.400   0.020  1.00  0.00    -0.014 C
ATOM      8  C   UNL     1       0.267   0.167  -0.309  1.00  0.00     0.012 C
ATOM      9  C   UNL     1      -0.763   1.571   1.480  1.00  0.00     0.012 C
BRANCH   6  10
ATOM     10  C   UNL     1       0.626   2.540  -1.981  1.00  0.00     0.001 C
ATOM     11  Br  UNL     1      -0.365   4.913  -3.192  1.00  0.00    -0.043 Br
ATOM     12  C   UNL     1       0.713   3.393  -3.016  1.00  0.00     0.057 C
ATOM     13  Br  UNL     1       1.956   3.119  -4.393  1.00  0.00    -0.043 Br
ENDBRANCH   6  10
ENDBRANCH   3   5
ENDBRANCH   2   3
ENDBRANCH   1   2
BRANCH   1  14
ATOM     14  C   UNL     1      -4.833   2.947  -2.448  1.00  0.00     0.011 A
ATOM     15  C   UNL     1      -6.225   3.034  -2.417  1.00  0.00     0.055 A
ATOM     16  C   UNL     1      -4.064   4.108  -2.541  1.00  0.00     0.009 A
ATOM     17  C   UNL     1      -6.847   4.280  -2.479  1.00  0.00     0.127 A
ATOM     18  C   UNL     1      -4.687   5.354  -2.604  1.00  0.00     0.004 A
ATOM     19  C   UNL     1      -6.079   5.440  -2.573  1.00  0.00     0.047 A
BRANCH  17  20
ATOM     20  O   UNL     1      -8.206   4.366  -2.449  1.00  0.00    -0.457 OA
BRANCH  20  21
ATOM     21  C   UNL     1      -8.820   4.421  -1.209  1.00  0.00     0.127 A
ATOM     22  C   UNL     1      -8.694   5.567  -0.446  1.00  0.00     0.047 A
ATOM     23  C   UNL     1      -9.543   3.328  -0.765  1.00  0.00     0.047 A
ATOM     24  C   UNL     1      -9.312   5.624   0.804  1.00  0.00     0.004 A
ATOM     25  C   UNL     1     -10.160   3.384   0.484  1.00  0.00     0.004 A
ATOM     26  C   UNL     1     -10.046   4.532   1.269  1.00  0.00     0.000 A
ENDBRANCH  20  21
ENDBRANCH  17  20
ENDBRANCH   1  14
BRANCH   1  27
ATOM     27  C   UNL     1      -4.905   0.573  -3.122  1.00  0.00     0.113 C
ATOM     28  N   UNL     1      -5.486  -0.239  -3.713  1.00  0.00    -0.194 NA
ENDBRANCH   1  27
TORSDOF 8
ENDMDL
MODEL 5
REMARK VINA RESULT:    -7.344      3.241      6.743
REMARK INTER + INTRA:         -11.285
REMARK INTER:                  -9.798
REMARK INTRA:                  -1.487
REMARK UNBOUND:                -0.507
REMARK SMILES CC1(C)C(C=C(Br)Br)C1C(=O)OC(C#N)c1cccc(Oc2ccccc2)c1
REMARK SMILES IDX 13 1 12 2 10 3 11 4 9 5 4 6 2 7 1 8 3 9 5 10 7 11 6 12 8 13
REMARK SMILES IDX 16 14 28 15 17 16 20 17 18 18 19 19 21 20 22 21 23 22 27 23
REMARK SMILES IDX 24 24 26 25 25 26 14 27 15 28
REMARK H PARENT
REMARK Flexibility Score: inf
ROOT
ATOM      1  C   UNL     1      -4.429   1.184  -2.863  1.00  0.00     0.309 C
ENDROOT
BRANCH   1   2
ATOM      2  O   UNL     1      -3.068   1.306  -3.299  1.00  0.00    -0.442 OA
BRANCH   2   3
ATOM      3  C   UNL     1      -2.136   0.813  -2.441  1.00  0.00     0.311 C
ATOM      4  O   UNL     1      -1.401  -0.147  -2.622  1.00  0.00    -0.252 OA
BRANCH   3   5
ATOM      5  C   UNL     1      -2.091   1.599  -1.180  1.00  0.00     0.113 C
ATOM      6  C   UNL     1      -1.273   2.850  -1.154  1.00  0.00     0.035 C
ATOM      7  C   UNL     1      -0.834   1.647  -0.373  1.00  0.00    -0.014 C
ATOM      8  C   UNL     1       0.378   0.923  -0.858  1.00  0.00     0.012 C
ATOM      9  C   UNL     1      -0.981   1.634   1.112  1.00  0.00     0.012 C
BRANCH   6  10
ATOM     10  C   UNL     1      -0.569   3.243  -2.365  1.00  0.00     0.001 C
ATOM     11  Br  UNL     1       0.242   5.770  -1.347  1.00  0.00    -0.043 Br
ATOM     12  C   UNL     1       0.092   4.389  -2.602  1.00  0.00     0.057 C
ATOM     13  Br  UNL     1       0.938   4.696  -4.247  1.00  0.00    -0.043 Br
ENDBRANCH   6  10
ENDBRANCH   3   5
ENDBRANCH   2   3
ENDBRANCH   1   2
BRANCH   1  14
ATOM     14  C   UNL     1      -5.106   2.510  -2.932  1.00  0.00     0.011 A
ATOM     15  C   UNL     1      -4.611   3.504  -3.776  1.00  0.00     0.055 A
ATOM     16  C   UNL     1      -6.237   2.756  -2.153  1.00  0.00     0.009 A
ATOM     17  C   UNL     1      -5.246   4.744  -3.840  1.00  0.00     0.127 A
ATOM     18  C   UNL     1      -6.871   3.997  -2.217  1.00  0.00     0.004 A
ATOM     19  C   UNL     1      -6.375   4.991  -3.061  1.00  0.00     0.047 A
BRANCH  17  20
ATOM     20  O   UNL     1      -4.762   5.715  -4.663  1.00  0.00    -0.457 OA
BRANCH  20  21
ATOM     21  C   UNL     1      -3.837   6.602  -4.137  1.00  0.00     0.127 A
ATOM     22  C   UNL     1      -4.235   7.483  -3.149  1.00  0.00     0.047 A
ATOM     23  C   UNL     1      -2.538   6.582  -4.614  1.00  0.00     0.047 A
ATOM     24  C   UNL     1      -3.303   8.377  -2.619  1.00  0.00     0.004 A
ATOM     25  C   UNL     1      -1.607   7.476  -4.085  1.00  0.00     0.004 A
ATOM     26  C   UNL     1      -1.989   8.373  -3.087  1.00  0.00     0.000 A
ENDBRANCH  20  21
ENDBRANCH  17  20
ENDBRANCH   1  14
BRANCH   1  27
ATOM     27  C   UNL     1      -5.111   0.155  -3.674  1.00  0.00     0.113 C
ATOM     28  N   UNL     1      -5.657  -0.650  -4.307  1.00  0.00    -0.194 NA
ENDBRANCH   1  27
TORSDOF 8
ENDMDL
