MODEL 1
REMARK VINA RESULT:    -6.624      0.000      0.000
REMARK INTER + INTRA:          -8.418
REMARK INTER:                  -7.785
REMARK INTRA:                  -0.633
REMARK UNBOUND:                -0.633
REMARK SMILES Clc1ccc(C(c2ccc(Cl)cc2)C(Cl)(Cl)Cl)cc1
REMARK SMILES IDX 6 1 14 2 15 3 16 4 17 5 5 6 4 7 18 8 3 9 19 10 2 11 1 12
REMARK SMILES IDX 7 13 8 14 13 15 9 16 12 17 10 18 11 19
REMARK H PARENT
REMARK Flexibility Score: inf
ROOT
ATOM      1  C   UNL     1      -1.317   1.995  -1.275  1.00  0.00     0.101 C 
ENDROOT
BRANCH   1   2
ATOM      2  C   UNL     1      -1.757   1.110  -2.516  1.00  0.00     0.201 C 
ATOM      3  Cl  UNL     1      -1.115   1.677  -4.091  1.00  0.00    -0.083 Cl
ATOM      4  Cl  UNL     1      -3.566   1.141  -2.663  1.00  0.00    -0.083 Cl
ATOM      5  Cl  UNL     1      -1.307  -0.625  -2.312  1.00  0.00    -0.083 Cl
ENDBRANCH   1   2
BRANCH   1   6
ATOM      6  C   UNL     1      -1.758   3.419  -1.309  1.00  0.00    -0.036 A 
ATOM      7  C   UNL     1      -2.172   4.048  -0.135  1.00  0.00     0.006 A 
ATOM      8  C   UNL     1      -1.759   4.121  -2.514  1.00  0.00     0.006 A 
ATOM      9  C   UNL     1      -2.586   5.380  -0.166  1.00  0.00     0.021 A 
ATOM     10  C   UNL     1      -2.173   5.453  -2.545  1.00  0.00     0.021 A 
ATOM     11  C   UNL     1      -2.586   6.082  -1.372  1.00  0.00     0.041 A 
ATOM     12  Cl  UNL     1      -3.097   7.725  -1.410  1.00  0.00    -0.084 Cl
ENDBRANCH   1   6
BRANCH   1  13
ATOM     13  C   UNL     1       0.149   1.832  -0.801  1.00  0.00    -0.036 A 
ATOM     14  C   UNL     1       0.374   1.147   0.361  1.00  0.00     0.006 A 
ATOM     15  C   UNL     1       1.135   2.385  -1.570  1.00  0.00     0.006 A 
ATOM     16  C   UNL     1       1.693   1.003   0.788  1.00  0.00     0.021 A 
ATOM     17  C   UNL     1       2.455   2.241  -1.142  1.00  0.00     0.021 A 
ATOM     18  C   UNL     1       2.734   1.549   0.037  1.00  0.00     0.041 A 
ATOM     19  Cl  UNL     1       4.363   1.372   0.565  1.00  0.00    -0.084 Cl
ENDBRANCH   1  13
TORSDOF 3
ENDMDL
MODEL 2
REMARK VINA RESULT:    -6.525      0.439      1.191
REMARK INTER + INTRA:          -8.302
REMARK INTER:                  -7.681
REMARK INTRA:                  -0.621
REMARK UNBOUND:                -0.633
REMARK SMILES Clc1ccc(C(c2ccc(Cl)cc2)C(Cl)(Cl)Cl)cc1
REMARK SMILES IDX 6 1 14 2 15 3 16 4 17 5 5 6 4 7 18 8 3 9 19 10 2 11 1 12
REMARK SMILES IDX 7 13 8 14 13 15 9 16 12 17 10 18 11 19
REMARK H PARENT
REMARK Flexibility Score: inf
ROOT
ATOM      1  C   UNL     1      -1.314   1.664  -1.434  1.00  0.00     0.101 C 
ENDROOT
BRANCH   1   2
ATOM      2  C   UNL     1      -1.666   0.694  -2.638  1.00  0.00     0.201 C 
ATOM      3  Cl  UNL     1      -0.994   1.206  -4.220  1.00  0.00    -0.083 Cl
ATOM      4  Cl  UNL     1      -3.467   0.627  -2.848  1.00  0.00    -0.083 Cl
ATOM      5  Cl  UNL     1      -1.140  -1.004  -2.323  1.00  0.00    -0.083 Cl
ENDBRANCH   1   2
BRANCH   1   6
ATOM      6  C   UNL     1      -1.851   3.051  -1.544  1.00  0.00    -0.036 A 
ATOM      7  C   UNL     1      -1.963   3.658  -2.795  1.00  0.00     0.006 A 
ATOM      8  C   UNL     1      -2.241   3.742  -0.396  1.00  0.00     0.006 A 
ATOM      9  C   UNL     1      -2.465   4.955  -2.898  1.00  0.00     0.021 A 
ATOM     10  C   UNL     1      -2.743   5.039  -0.500  1.00  0.00     0.021 A 
ATOM     11  C   UNL     1      -2.855   5.646  -1.750  1.00  0.00     0.041 A 
ATOM     12  Cl  UNL     1      -3.474   7.247  -1.878  1.00  0.00    -0.084 Cl
ENDBRANCH   1   6
BRANCH   1  13
ATOM     13  C   UNL     1       0.149   1.627  -0.926  1.00  0.00    -0.036 A 
ATOM     14  C   UNL     1       0.410   0.934   0.223  1.00  0.00     0.006 A 
ATOM     15  C   UNL     1       1.096   2.291  -1.654  1.00  0.00     0.006 A 
ATOM     16  C   UNL     1       1.727   0.903   0.681  1.00  0.00     0.021 A 
ATOM     17  C   UNL     1       2.413   2.260  -1.196  1.00  0.00     0.021 A 
ATOM     18  C   UNL     1       2.729   1.565  -0.028  1.00  0.00     0.041 A 
ATOM     19  Cl  UNL     1       4.354   1.527   0.537  1.00  0.00    -0.084 Cl
ENDBRANCH   1  13
TORSDOF 3
ENDMDL
MODEL 3
REMARK VINA RESULT:    -6.385      2.319      4.835
REMARK INTER + INTRA:          -8.138
REMARK INTER:                  -7.548
REMARK INTRA:                  -0.590
REMARK UNBOUND:                -0.633
REMARK SMILES Clc1ccc(C(c2ccc(Cl)cc2)C(Cl)(Cl)Cl)cc1
REMARK SMILES IDX 6 1 14 2 15 3 16 4 17 5 5 6 4 7 18 8 3 9 19 10 2 11 1 12
REMARK SMILES IDX 7 13 8 14 13 15 9 16 12 17 10 18 11 19
REMARK H PARENT
REMARK Flexibility Score: inf
ROOT
ATOM      1  C   UNL     1      -0.197   1.512  -1.697  1.00  0.00     0.101 C 
ENDROOT
BRANCH   1   2
ATOM      2  C   UNL     1       0.164   0.977  -0.248  1.00  0.00     0.201 C 
ATOM      3  Cl  UNL     1      -0.931   1.557   1.047  1.00  0.00    -0.083 Cl
ATOM      4  Cl  UNL     1       1.829   1.542   0.202  1.00  0.00    -0.083 Cl
ATOM      5  Cl  UNL     1       0.218  -0.825  -0.180  1.00  0.00    -0.083 Cl
ENDBRANCH   1   2
BRANCH   1   6
ATOM      6  C   UNL     1      -0.121   2.991  -1.876  1.00  0.00    -0.036 A 
ATOM      7  C   UNL     1       0.483   3.525  -3.014  1.00  0.00     0.006 A 
ATOM      8  C   UNL     1      -0.654   3.840  -0.905  1.00  0.00     0.006 A 
ATOM      9  C   UNL     1       0.556   4.908  -3.181  1.00  0.00     0.021 A 
ATOM     10  C   UNL     1      -0.582   5.223  -1.073  1.00  0.00     0.021 A 
ATOM     11  C   UNL     1       0.023   5.757  -2.211  1.00  0.00     0.041 A 
ATOM     12  Cl  UNL     1       0.112   7.464  -2.417  1.00  0.00    -0.084 Cl
ENDBRANCH   1   6
BRANCH   1  13
ATOM     13  C   UNL     1      -1.448   0.891  -2.368  1.00  0.00    -0.036 A 
ATOM     14  C   UNL     1      -1.258  -0.140  -3.245  1.00  0.00     0.006 A 
ATOM     15  C   UNL     1      -2.671   1.409  -2.044  1.00  0.00     0.006 A 
ATOM     16  C   UNL     1      -2.384  -0.698  -3.850  1.00  0.00     0.021 A 
ATOM     17  C   UNL     1      -3.797   0.851  -2.650  1.00  0.00     0.021 A 
ATOM     18  C   UNL     1      -3.653  -0.203  -3.552  1.00  0.00     0.041 A 
ATOM     19  Cl  UNL     1      -5.043  -0.891  -4.299  1.00  0.00    -0.084 Cl
ENDBRANCH   1  13
TORSDOF 3
ENDMDL
MODEL 4
REMARK VINA RESULT:    -6.045      1.079      5.457
REMARK INTER + INTRA:          -7.738
REMARK INTER:                  -7.093
REMARK INTRA:                  -0.645
REMARK UNBOUND:                -0.633
REMARK SMILES Clc1ccc(C(c2ccc(Cl)cc2)C(Cl)(Cl)Cl)cc1
REMARK SMILES IDX 6 1 14 2 15 3 16 4 17 5 5 6 4 7 18 8 3 9 19 10 2 11 1 12
REMARK SMILES IDX 7 13 8 14 13 15 9 16 12 17 10 18 11 19
REMARK H PARENT
REMARK Flexibility Score: inf
ROOT
ATOM      1  C   UNL     1      -1.491   2.642  -2.512  1.00  0.00     0.101 C 
ENDROOT
BRANCH   1   2
ATOM      2  C   UNL     1      -2.660   1.592  -2.726  1.00  0.00     0.201 C 
ATOM      3  Cl  UNL     1      -2.131  -0.121  -2.679  1.00  0.00    -0.083 Cl
ATOM      4  Cl  UNL     1      -3.406   1.849  -4.360  1.00  0.00    -0.083 Cl
ATOM      5  Cl  UNL     1      -3.996   1.804  -1.532  1.00  0.00    -0.083 Cl
ENDBRANCH   1   2
BRANCH   1   6
ATOM      6  C   UNL     1      -0.413   2.225  -1.569  1.00  0.00    -0.036 A 
ATOM      7  C   UNL     1      -0.741   1.596  -0.369  1.00  0.00     0.006 A 
ATOM      8  C   UNL     1       0.924   2.465  -1.888  1.00  0.00     0.006 A 
ATOM      9  C   UNL     1       0.267   1.207   0.514  1.00  0.00     0.021 A 
ATOM     10  C   UNL     1       1.932   2.075  -1.007  1.00  0.00     0.021 A 
ATOM     11  C   UNL     1       1.604   1.446   0.194  1.00  0.00     0.041 A 
ATOM     12  Cl  UNL     1       2.848   0.966   1.283  1.00  0.00    -0.084 Cl
ENDBRANCH   1   6
BRANCH   1  13
ATOM     13  C   UNL     1      -1.920   4.118  -2.316  1.00  0.00    -0.036 A 
ATOM     14  C   UNL     1      -2.081   4.891  -3.432  1.00  0.00     0.006 A 
ATOM     15  C   UNL     1      -2.111   4.564  -1.039  1.00  0.00     0.006 A 
ATOM     16  C   UNL     1      -2.465   6.220  -3.256  1.00  0.00     0.021 A 
ATOM     17  C   UNL     1      -2.495   5.894  -0.862  1.00  0.00     0.021 A 
ATOM     18  C   UNL     1      -2.673   6.721  -1.971  1.00  0.00     0.041 A 
ATOM     19  Cl  UNL     1      -3.146   8.362  -1.753  1.00  0.00    -0.084 Cl
ENDBRANCH   1  13
TORSDOF 3
ENDMDL
MODEL 5
REMARK VINA RESULT:    -6.026      2.141      4.322
REMARK INTER + INTRA:          -7.716
REMARK INTER:                  -7.097
REMARK INTRA:                  -0.620
REMARK UNBOUND:                -0.633
REMARK SMILES Clc1ccc(C(c2ccc(Cl)cc2)C(Cl)(Cl)Cl)cc1
REMARK SMILES IDX 6 1 14 2 15 3 16 4 17 5 5 6 4 7 18 8 3 9 19 10 2 11 1 12
REMARK SMILES IDX 7 13 8 14 13 15 9 16 12 17 10 18 11 19
REMARK H PARENT
REMARK Flexibility Score: inf
ROOT
ATOM      1  C   UNL     1      -1.933   3.082  -1.957  1.00  0.00     0.101 C 
ENDROOT
BRANCH   1   2
ATOM      2  C   UNL     1      -2.739   4.249  -1.248  1.00  0.00     0.201 C 
ATOM      3  Cl  UNL     1      -3.900   5.100  -2.317  1.00  0.00    -0.083 Cl
ATOM      4  Cl  UNL     1      -1.575   5.508  -0.655  1.00  0.00    -0.083 Cl
ATOM      5  Cl  UNL     1      -3.632   3.673   0.212  1.00  0.00    -0.083 Cl
ENDBRANCH   1   2
BRANCH   1   6
ATOM      6  C   UNL     1      -2.762   2.022  -2.600  1.00  0.00    -0.036 A 
ATOM      7  C   UNL     1      -2.345   1.441  -3.798  1.00  0.00     0.006 A 
ATOM      8  C   UNL     1      -3.957   1.613  -2.006  1.00  0.00     0.006 A 
ATOM      9  C   UNL     1      -3.121   0.451  -4.400  1.00  0.00     0.021 A 
ATOM     10  C   UNL     1      -4.732   0.623  -2.608  1.00  0.00     0.021 A 
ATOM     11  C   UNL     1      -4.315   0.042  -3.805  1.00  0.00     0.041 A 
ATOM     12  Cl  UNL     1      -5.273  -1.179  -4.548  1.00  0.00    -0.084 Cl
ENDBRANCH   1   6
BRANCH   1  13
ATOM     13  C   UNL     1      -0.726   2.505  -1.175  1.00  0.00    -0.036 A 
ATOM     14  C   UNL     1      -0.983   1.765  -0.055  1.00  0.00     0.006 A 
ATOM     15  C   UNL     1       0.529   2.771  -1.649  1.00  0.00     0.006 A 
ATOM     16  C   UNL     1       0.104   1.249   0.649  1.00  0.00     0.021 A 
ATOM     17  C   UNL     1       1.616   2.255  -0.944  1.00  0.00     0.021 A 
ATOM     18  C   UNL     1       1.403   1.493   0.205  1.00  0.00     0.041 A 
ATOM     19  Cl  UNL     1       2.745   0.855   1.075  1.00  0.00    -0.084 Cl
ENDBRANCH   1  13
TORSDOF 3
ENDMDL
