MODEL 1
REMARK VINA RESULT:    -5.919      0.000      0.000
REMARK INTER + INTRA:          -7.572
REMARK INTER:                  -6.957
REMARK INTRA:                  -0.615
REMARK UNBOUND:                -0.615
REMARK SMILES Clc1ccc(C(c2ccc(Cl)cc2)C(Cl)(Cl)Cl)cc1
REMARK SMILES IDX 6 1 14 2 15 3 16 4 17 5 5 6 4 7 18 8 3 9 19 10 2 11 1 12
REMARK SMILES IDX 7 13 8 14 13 15 9 16 12 17 10 18 11 19
REMARK H PARENT
REMARK Flexibility Score: inf
ROOT
ATOM      1  C   UNL     1      -1.380   1.967  -1.296  1.00  0.00     0.101 C 
ENDROOT
BRANCH   1   2
ATOM      2  C   UNL     1      -1.813   1.086  -2.541  1.00  0.00     0.201 C 
ATOM      3  Cl  UNL     1      -1.185   1.672  -4.115  1.00  0.00    -0.083 Cl
ATOM      4  Cl  UNL     1      -3.622   1.093  -2.681  1.00  0.00    -0.083 Cl
ATOM      5  Cl  UNL     1      -1.338  -0.645  -2.352  1.00  0.00    -0.083 Cl
ENDBRANCH   1   2
BRANCH   1   6
ATOM      6  C   UNL     1      -1.818   3.392  -1.330  1.00  0.00    -0.036 A 
ATOM      7  C   UNL     1      -2.151   4.048  -0.145  1.00  0.00     0.006 A 
ATOM      8  C   UNL     1      -1.896   4.070  -2.548  1.00  0.00     0.006 A 
ATOM      9  C   UNL     1      -2.561   5.381  -0.177  1.00  0.00     0.021 A 
ATOM     10  C   UNL     1      -2.305   5.402  -2.580  1.00  0.00     0.021 A 
ATOM     11  C   UNL     1      -2.639   6.058  -1.395  1.00  0.00     0.041 A 
ATOM     12  Cl  UNL     1      -3.146   7.702  -1.434  1.00  0.00    -0.084 Cl
ENDBRANCH   1   6
BRANCH   1  13
ATOM     13  C   UNL     1       0.082   1.801  -0.811  1.00  0.00    -0.036 A 
ATOM     14  C   UNL     1       1.073   2.379  -1.554  1.00  0.00     0.006 A 
ATOM     15  C   UNL     1       0.299   1.083   0.332  1.00  0.00     0.006 A 
ATOM     16  C   UNL     1       2.389   2.228  -1.118  1.00  0.00     0.021 A 
ATOM     17  C   UNL     1       1.615   0.931   0.767  1.00  0.00     0.021 A 
ATOM     18  C   UNL     1       2.660   1.504   0.043  1.00  0.00     0.041 A 
ATOM     19  Cl  UNL     1       4.285   1.316   0.581  1.00  0.00    -0.084 Cl
ENDBRANCH   1  13
TORSDOF 3
ENDMDL
MODEL 2
REMARK VINA RESULT:    -5.892      2.204      4.777
REMARK INTER + INTRA:          -7.540
REMARK INTER:                  -7.051
REMARK INTRA:                  -0.489
REMARK UNBOUND:                -0.615
REMARK SMILES Clc1ccc(C(c2ccc(Cl)cc2)C(Cl)(Cl)Cl)cc1
REMARK SMILES IDX 6 1 14 2 15 3 16 4 17 5 5 6 4 7 18 8 3 9 19 10 2 11 1 12
REMARK SMILES IDX 7 13 8 14 13 15 9 16 12 17 10 18 11 19
REMARK H PARENT
REMARK Flexibility Score: inf
ROOT
ATOM      1  C   UNL     1      -0.049   1.506  -1.572  1.00  0.00     0.101 C 
ENDROOT
BRANCH   1   2
ATOM      2  C   UNL     1       0.341   0.925  -0.149  1.00  0.00     0.201 C 
ATOM      3  Cl  UNL     1      -0.627   1.585   1.209  1.00  0.00    -0.083 Cl
ATOM      4  Cl  UNL     1       2.071   1.336   0.213  1.00  0.00    -0.083 Cl
ATOM      5  Cl  UNL     1       0.238  -0.876  -0.094  1.00  0.00    -0.083 Cl
ENDBRANCH   1   2
BRANCH   1   6
ATOM      6  C   UNL     1      -0.004   2.991  -1.698  1.00  0.00    -0.036 A 
ATOM      7  C   UNL     1       0.864   3.587  -2.612  1.00  0.00     0.006 A 
ATOM      8  C   UNL     1      -0.830   3.784  -0.900  1.00  0.00     0.006 A 
ATOM      9  C   UNL     1       0.908   4.976  -2.729  1.00  0.00     0.021 A 
ATOM     10  C   UNL     1      -0.787   5.173  -1.018  1.00  0.00     0.021 A 
ATOM     11  C   UNL     1       0.082   5.769  -1.931  1.00  0.00     0.041 A 
ATOM     12  Cl  UNL     1       0.135   7.484  -2.075  1.00  0.00    -0.084 Cl
ENDBRANCH   1   6
BRANCH   1  13
ATOM     13  C   UNL     1      -1.297   0.884  -2.250  1.00  0.00    -0.036 A 
ATOM     14  C   UNL     1      -2.528   1.285  -1.814  1.00  0.00     0.006 A 
ATOM     15  C   UNL     1      -1.094  -0.031  -3.245  1.00  0.00     0.006 A 
ATOM     16  C   UNL     1      -3.650   0.725  -2.423  1.00  0.00     0.021 A 
ATOM     17  C   UNL     1      -2.217  -0.593  -3.853  1.00  0.00     0.021 A 
ATOM     18  C   UNL     1      -3.495  -0.214  -3.443  1.00  0.00     0.041 A 
ATOM     19  Cl  UNL     1      -4.880  -0.907  -4.195  1.00  0.00    -0.084 Cl
ENDBRANCH   1  13
TORSDOF 3
ENDMDL
MODEL 3
REMARK VINA RESULT:    -5.817      0.486      1.243
REMARK INTER + INTRA:          -7.451
REMARK INTER:                  -6.878
REMARK INTRA:                  -0.574
REMARK UNBOUND:                -0.615
REMARK SMILES Clc1ccc(C(c2ccc(Cl)cc2)C(Cl)(Cl)Cl)cc1
REMARK SMILES IDX 6 1 14 2 15 3 16 4 17 5 5 6 4 7 18 8 3 9 19 10 2 11 1 12
REMARK SMILES IDX 7 13 8 14 13 15 9 16 12 17 10 18 11 19
REMARK H PARENT
REMARK Flexibility Score: inf
ROOT
ATOM      1  C   UNL     1      -1.423   1.623  -1.502  1.00  0.00     0.101 C 
ENDROOT
BRANCH   1   2
ATOM      2  C   UNL     1      -1.754   0.665  -2.722  1.00  0.00     0.201 C 
ATOM      3  Cl  UNL     1      -3.506   0.468  -3.052  1.00  0.00    -0.083 Cl
ATOM      4  Cl  UNL     1      -1.112  -0.996  -2.373  1.00  0.00    -0.083 Cl
ATOM      5  Cl  UNL     1      -0.948   1.197  -4.246  1.00  0.00    -0.083 Cl
ENDBRANCH   1   2
BRANCH   1   6
ATOM      6  C   UNL     1      -1.949   3.014  -1.612  1.00  0.00    -0.036 A 
ATOM      7  C   UNL     1      -2.226   3.748  -0.459  1.00  0.00     0.006 A 
ATOM      8  C   UNL     1      -2.164   3.581  -2.869  1.00  0.00     0.006 A 
ATOM      9  C   UNL     1      -2.719   5.049  -0.562  1.00  0.00     0.021 A 
ATOM     10  C   UNL     1      -2.656   4.882  -2.972  1.00  0.00     0.021 A 
ATOM     11  C   UNL     1      -2.934   5.616  -1.819  1.00  0.00     0.041 A 
ATOM     12  Cl  UNL     1      -3.542   7.221  -1.946  1.00  0.00    -0.084 Cl
ENDBRANCH   1   6
BRANCH   1  13
ATOM     13  C   UNL     1       0.028   1.571  -0.961  1.00  0.00    -0.036 A 
ATOM     14  C   UNL     1       0.980   2.305  -1.611  1.00  0.00     0.006 A 
ATOM     15  C   UNL     1       0.274   0.793   0.136  1.00  0.00     0.006 A 
ATOM     16  C   UNL     1       2.286   2.257  -1.125  1.00  0.00     0.021 A 
ATOM     17  C   UNL     1       1.581   0.745   0.622  1.00  0.00     0.021 A 
ATOM     18  C   UNL     1       2.587   1.477  -0.008  1.00  0.00     0.041 A 
ATOM     19  Cl  UNL     1       4.199   1.417   0.592  1.00  0.00    -0.084 Cl
ENDBRANCH   1  13
TORSDOF 3
ENDMDL
MODEL 4
REMARK VINA RESULT:    -5.805      2.522      3.718
REMARK INTER + INTRA:          -7.438
REMARK INTER:                  -7.100
REMARK INTRA:                  -0.338
REMARK UNBOUND:                -0.615
REMARK SMILES Clc1ccc(C(c2ccc(Cl)cc2)C(Cl)(Cl)Cl)cc1
REMARK SMILES IDX 6 1 14 2 15 3 16 4 17 5 5 6 4 7 18 8 3 9 19 10 2 11 1 12
REMARK SMILES IDX 7 13 8 14 13 15 9 16 12 17 10 18 11 19
REMARK H PARENT
REMARK Flexibility Score: inf
ROOT
ATOM      1  C   UNL     1      -4.503   4.032  -1.701  1.00  0.00     0.101 C 
ENDROOT
BRANCH   1   2
ATOM      2  C   UNL     1      -5.406   3.174  -2.684  1.00  0.00     0.201 C 
ATOM      3  Cl  UNL     1      -5.179   3.561  -4.420  1.00  0.00    -0.083 Cl
ATOM      4  Cl  UNL     1      -7.155   3.485  -2.317  1.00  0.00    -0.083 Cl
ATOM      5  Cl  UNL     1      -5.161   1.400  -2.463  1.00  0.00    -0.083 Cl
ENDBRANCH   1   2
BRANCH   1   6
ATOM      6  C   UNL     1      -4.418   5.489  -2.009  1.00  0.00    -0.036 A 
ATOM      7  C   UNL     1      -5.480   6.130  -2.645  1.00  0.00     0.006 A 
ATOM      8  C   UNL     1      -3.276   6.210  -1.661  1.00  0.00     0.006 A 
ATOM      9  C   UNL     1      -5.401   7.492  -2.934  1.00  0.00     0.021 A 
ATOM     10  C   UNL     1      -3.196   7.572  -1.948  1.00  0.00     0.021 A 
ATOM     11  C   UNL     1      -4.258   8.213  -2.585  1.00  0.00     0.041 A 
ATOM     12  Cl  UNL     1      -4.159   9.894  -2.942  1.00  0.00    -0.084 Cl
ENDBRANCH   1   6
BRANCH   1  13
ATOM     13  C   UNL     1      -3.133   3.420  -1.315  1.00  0.00    -0.036 A 
ATOM     14  C   UNL     1      -2.191   3.290  -2.296  1.00  0.00     0.006 A 
ATOM     15  C   UNL     1      -2.946   3.042  -0.014  1.00  0.00     0.006 A 
ATOM     16  C   UNL     1      -0.959   2.738  -1.948  1.00  0.00     0.021 A 
ATOM     17  C   UNL     1      -1.713   2.489   0.334  1.00  0.00     0.021 A 
ATOM     18  C   UNL     1      -0.719   2.337  -0.633  1.00  0.00     0.041 A 
ATOM     19  Cl  UNL     1       0.801   1.655  -0.203  1.00  0.00    -0.084 Cl
ENDBRANCH   1  13
TORSDOF 3
ENDMDL
MODEL 5
REMARK VINA RESULT:    -5.770      2.764      3.749
REMARK INTER + INTRA:          -7.396
REMARK INTER:                  -6.796
REMARK INTRA:                  -0.600
REMARK UNBOUND:                -0.615
REMARK SMILES Clc1ccc(C(c2ccc(Cl)cc2)C(Cl)(Cl)Cl)cc1
REMARK SMILES IDX 6 1 14 2 15 3 16 4 17 5 5 6 4 7 18 8 3 9 19 10 2 11 1 12
REMARK SMILES IDX 7 13 8 14 13 15 9 16 12 17 10 18 11 19
REMARK H PARENT
REMARK Flexibility Score: inf
ROOT
ATOM      1  C   UNL     1      -2.440   4.649  -1.829  1.00  0.00     0.101 C 
ENDROOT
BRANCH   1   2
ATOM      2  C   UNL     1      -3.493   3.473  -1.975  1.00  0.00     0.201 C 
ATOM      3  Cl  UNL     1      -5.124   3.859  -1.337  1.00  0.00    -0.083 Cl
ATOM      4  Cl  UNL     1      -2.912   2.027  -1.044  1.00  0.00    -0.083 Cl
ATOM      5  Cl  UNL     1      -3.670   2.922  -3.684  1.00  0.00    -0.083 Cl
ENDBRANCH   1   2
BRANCH   1   6
ATOM      6  C   UNL     1      -2.968   6.022  -2.070  1.00  0.00    -0.036 A 
ATOM      7  C   UNL     1      -2.441   7.105  -1.367  1.00  0.00     0.006 A 
ATOM      8  C   UNL     1      -3.990   6.224  -2.998  1.00  0.00     0.006 A 
ATOM      9  C   UNL     1      -2.936   8.390  -1.592  1.00  0.00     0.021 A 
ATOM     10  C   UNL     1      -4.484   7.509  -3.224  1.00  0.00     0.021 A 
ATOM     11  C   UNL     1      -3.958   8.591  -2.521  1.00  0.00     0.041 A 
ATOM     12  Cl  UNL     1      -4.569  10.177  -2.798  1.00  0.00    -0.084 Cl
ENDBRANCH   1   6
BRANCH   1  13
ATOM     13  C   UNL     1      -1.054   4.416  -2.482  1.00  0.00    -0.036 A 
ATOM     14  C   UNL     1      -0.904   4.747  -3.800  1.00  0.00     0.006 A 
ATOM     15  C   UNL     1      -0.061   3.891  -1.704  1.00  0.00     0.006 A 
ATOM     16  C   UNL     1       0.343   4.536  -4.387  1.00  0.00     0.021 A 
ATOM     17  C   UNL     1       1.186   3.679  -2.292  1.00  0.00     0.021 A 
ATOM     18  C   UNL     1       1.389   4.002  -3.634  1.00  0.00     0.041 A 
ATOM     19  Cl  UNL     1       2.927   3.741  -4.359  1.00  0.00    -0.084 Cl
ENDBRANCH   1  13
TORSDOF 3
ENDMDL
