MODEL 1
REMARK VINA RESULT:    -6.577      0.000      0.000
REMARK INTER + INTRA:         -12.473
REMARK INTER:                  -9.268
REMARK INTRA:                  -3.206
REMARK UNBOUND:                -3.206
REMARK SMILES CC1(C)[C@H](C=C(Cl)Cl)[C@H]1C(=O)OCc1cccc(Oc2ccccc2)c1
REMARK SMILES IDX 13 1 12 2 10 3 11 4 9 5 4 6 2 7 1 8 3 9 5 10 7 11 6 12 8 13
REMARK SMILES IDX 14 14 26 15 15 16 18 17 16 18 17 19 19 20 20 21 21 22 25 23
REMARK SMILES IDX 22 24 24 25 23 26
REMARK H PARENT
REMARK Flexibility Score: inf
ROOT
ATOM      1  C   UNL     1      -0.340   6.765  -3.304  1.00  0.00     0.268 C 
ENDROOT
BRANCH   1   2
ATOM      2  O   UNL     1      -0.164   5.384  -3.014  1.00  0.00    -0.461 OA
BRANCH   2   3
ATOM      3  C   UNL     1       0.094   5.079  -1.709  1.00  0.00     0.310 C 
ATOM      4  O   UNL     1       0.732   5.755  -0.915  1.00  0.00    -0.252 OA
BRANCH   3   5
ATOM      5  C   UNL     1      -0.506   3.778  -1.316  1.00  0.00     0.113 C 
ATOM      6  C   UNL     1      -1.691   3.283  -2.083  1.00  0.00     0.035 C 
ATOM      7  C   UNL     1      -1.851   3.741  -0.662  1.00  0.00    -0.014 C 
ATOM      8  C   UNL     1      -2.139   2.699   0.366  1.00  0.00     0.012 C 
ATOM      9  C   UNL     1      -2.504   5.051  -0.374  1.00  0.00     0.012 C 
BRANCH   6  10
ATOM     10  C   UNL     1      -1.756   1.867  -2.413  1.00  0.00     0.011 C 
ATOM     11  Cl  UNL     1      -0.056   2.043  -4.496  1.00  0.00    -0.071 Cl
ATOM     12  C   UNL     1      -1.116   1.227  -3.403  1.00  0.00     0.103 C 
ATOM     13  Cl  UNL     1      -1.333  -0.474  -3.630  1.00  0.00    -0.071 Cl
ENDBRANCH   6  10
ENDBRANCH   3   5
ENDBRANCH   2   3
ENDBRANCH   1   2
BRANCH   1  14
ATOM     14  C   UNL     1      -1.773   7.132  -3.122  1.00  0.00    -0.007 A 
ATOM     15  C   UNL     1      -2.772   6.350  -3.703  1.00  0.00     0.054 A 
ATOM     16  C   UNL     1      -2.115   8.256  -2.371  1.00  0.00     0.007 A 
ATOM     17  C   UNL     1      -4.113   6.694  -3.532  1.00  0.00     0.127 A 
ATOM     18  C   UNL     1      -3.456   8.600  -2.201  1.00  0.00     0.004 A 
ATOM     19  C   UNL     1      -4.455   7.818  -2.781  1.00  0.00     0.047 A 
BRANCH  17  20
ATOM     20  O   UNL     1      -5.089   5.931  -4.098  1.00  0.00    -0.457 OA
BRANCH  20  21
ATOM     21  C   UNL     1      -5.166   4.601  -3.722  1.00  0.00     0.127 A 
ATOM     22  C   UNL     1      -4.905   3.620  -4.663  1.00  0.00     0.047 A 
ATOM     23  C   UNL     1      -5.503   4.287  -2.419  1.00  0.00     0.047 A 
ATOM     24  C   UNL     1      -4.983   2.280  -4.285  1.00  0.00     0.004 A 
ATOM     25  C   UNL     1      -5.580   2.946  -2.041  1.00  0.00     0.004 A 
ATOM     26  C   UNL     1      -5.319   1.943  -2.974  1.00  0.00     0.000 A 
ENDBRANCH  20  21
ENDBRANCH  17  20
ENDBRANCH   1  14
TORSDOF 7
ENDMDL
MODEL 2
REMARK VINA RESULT:    -6.317      2.565      5.012
REMARK INTER + INTRA:         -12.107
REMARK INTER:                 -10.010
REMARK INTRA:                  -2.098
REMARK UNBOUND:                -3.206
REMARK SMILES CC1(C)[C@H](C=C(Cl)Cl)[C@H]1C(=O)OCc1cccc(Oc2ccccc2)c1
REMARK SMILES IDX 13 1 12 2 10 3 11 4 9 5 4 6 2 7 1 8 3 9 5 10 7 11 6 12 8 13
REMARK SMILES IDX 14 14 26 15 15 16 18 17 16 18 17 19 19 20 20 21 21 22 25 23
REMARK SMILES IDX 22 24 24 25 23 26
REMARK H PARENT
REMARK Flexibility Score: inf
ROOT
ATOM      1  C   UNL     1       1.127   3.504  -1.867  1.00  0.00     0.268 C 
ENDROOT
BRANCH   1   2
ATOM      2  O   UNL     1       0.234   4.528  -2.289  1.00  0.00    -0.461 OA
BRANCH   2   3
ATOM      3  C   UNL     1       0.055   5.557  -1.411  1.00  0.00     0.310 C 
ATOM      4  O   UNL     1       0.916   6.086  -0.722  1.00  0.00    -0.252 OA
BRANCH   3   5
ATOM      5  C   UNL     1      -1.360   6.006  -1.367  1.00  0.00     0.113 C 
ATOM      6  C   UNL     1      -2.206   5.805  -2.585  1.00  0.00     0.035 C 
ATOM      7  C   UNL     1      -1.796   7.189  -2.173  1.00  0.00    -0.014 C 
ATOM      8  C   UNL     1      -2.859   8.089  -1.639  1.00  0.00     0.012 C 
ATOM      9  C   UNL     1      -0.744   7.911  -2.945  1.00  0.00     0.012 C 
BRANCH   6  10
ATOM     10  C   UNL     1      -3.580   5.358  -2.403  1.00  0.00     0.011 C 
ATOM     11  Cl  UNL     1      -2.908   3.061  -1.167  1.00  0.00    -0.071 Cl
ATOM     12  C   UNL     1      -4.002   4.224  -1.823  1.00  0.00     0.103 C 
ATOM     13  Cl  UNL     1      -5.692   3.877  -1.709  1.00  0.00    -0.071 Cl
ENDBRANCH   6  10
ENDBRANCH   3   5
ENDBRANCH   2   3
ENDBRANCH   1   2
BRANCH   1  14
ATOM     14  C   UNL     1       0.437   2.184  -1.938  1.00  0.00    -0.007 A 
ATOM     15  C   UNL     1      -0.191   1.788  -3.119  1.00  0.00     0.054 A 
ATOM     16  C   UNL     1       0.421   1.344  -0.824  1.00  0.00     0.007 A 
ATOM     17  C   UNL     1      -0.836   0.553  -3.185  1.00  0.00     0.127 A 
ATOM     18  C   UNL     1      -0.224   0.110  -0.891  1.00  0.00     0.004 A 
ATOM     19  C   UNL     1      -0.852  -0.286  -2.072  1.00  0.00     0.047 A 
BRANCH  17  20
ATOM     20  O   UNL     1      -1.449   0.166  -4.338  1.00  0.00    -0.457 OA
BRANCH  20  21
ATOM     21  C   UNL     1      -2.832   0.222  -4.382  1.00  0.00     0.127 A 
ATOM     22  C   UNL     1      -3.552  -0.959  -4.429  1.00  0.00     0.047 A 
ATOM     23  C   UNL     1      -3.457   1.455  -4.379  1.00  0.00     0.047 A 
ATOM     24  C   UNL     1      -4.944  -0.903  -4.473  1.00  0.00     0.004 A 
ATOM     25  C   UNL     1      -4.851   1.510  -4.423  1.00  0.00     0.004 A 
ATOM     26  C   UNL     1      -5.594   0.331  -4.470  1.00  0.00     0.000 A 
ENDBRANCH  20  21
ENDBRANCH  17  20
ENDBRANCH   1  14
TORSDOF 7
ENDMDL
MODEL 3
REMARK VINA RESULT:    -6.274      2.285      4.507
REMARK INTER + INTRA:         -12.047
REMARK INTER:                  -9.873
REMARK INTRA:                  -2.174
REMARK UNBOUND:                -3.206
REMARK SMILES CC1(C)[C@H](C=C(Cl)Cl)[C@H]1C(=O)OCc1cccc(Oc2ccccc2)c1
REMARK SMILES IDX 13 1 12 2 10 3 11 4 9 5 4 6 2 7 1 8 3 9 5 10 7 11 6 12 8 13
REMARK SMILES IDX 14 14 26 15 15 16 18 17 16 18 17 19 19 20 20 21 21 22 25 23
REMARK SMILES IDX 22 24 24 25 23 26
REMARK H PARENT
REMARK Flexibility Score: inf
ROOT
ATOM      1  C   UNL     1      -4.615   1.994  -4.046  1.00  0.00     0.268 C 
ENDROOT
BRANCH   1   2
ATOM      2  O   UNL     1      -3.219   2.046  -3.778  1.00  0.00    -0.461 OA
BRANCH   2   3
ATOM      3  C   UNL     1      -2.829   1.553  -2.567  1.00  0.00     0.310 C 
ATOM      4  O   UNL     1      -3.307   0.591  -1.983  1.00  0.00    -0.252 OA
BRANCH   3   5
ATOM      5  C   UNL     1      -1.705   2.333  -1.988  1.00  0.00     0.113 C 
ATOM      6  C   UNL     1      -1.339   2.095  -0.558  1.00  0.00     0.035 C 
ATOM      7  C   UNL     1      -1.976   3.391  -0.967  1.00  0.00    -0.014 C 
ATOM      8  C   UNL     1      -1.124   4.615  -0.933  1.00  0.00     0.012 C 
ATOM      9  C   UNL     1      -3.404   3.657  -0.624  1.00  0.00     0.012 C 
BRANCH   6  10
ATOM     10  C   UNL     1       0.073   2.046  -0.206  1.00  0.00     0.011 C 
ATOM     11  Cl  UNL     1       0.213  -0.645  -0.214  1.00  0.00    -0.071 Cl
ATOM     12  C   UNL     1       0.836   0.956  -0.033  1.00  0.00     0.103 C 
ATOM     13  Cl  UNL     1       2.505   1.115   0.389  1.00  0.00    -0.071 Cl
ENDBRANCH   6  10
ENDBRANCH   3   5
ENDBRANCH   2   3
ENDBRANCH   1   2
BRANCH   1  14
ATOM     14  C   UNL     1      -5.274   3.207  -3.482  1.00  0.00    -0.007 A 
ATOM     15  C   UNL     1      -4.826   4.477  -3.847  1.00  0.00     0.054 A 
ATOM     16  C   UNL     1      -6.339   3.072  -2.592  1.00  0.00     0.007 A 
ATOM     17  C   UNL     1      -5.443   5.611  -3.319  1.00  0.00     0.127 A 
ATOM     18  C   UNL     1      -6.955   4.206  -2.064  1.00  0.00     0.004 A 
ATOM     19  C   UNL     1      -6.507   5.476  -2.428  1.00  0.00     0.047 A 
BRANCH  17  20
ATOM     20  O   UNL     1      -5.006   6.851  -3.674  1.00  0.00    -0.457 OA
BRANCH  20  21
ATOM     21  C   UNL     1      -3.745   7.234  -3.253  1.00  0.00     0.127 A 
ATOM     22  C   UNL     1      -2.686   7.157  -4.141  1.00  0.00     0.047 A 
ATOM     23  C   UNL     1      -3.574   7.684  -1.957  1.00  0.00     0.047 A 
ATOM     24  C   UNL     1      -1.415   7.544  -3.717  1.00  0.00     0.004 A 
ATOM     25  C   UNL     1      -2.302   8.071  -1.534  1.00  0.00     0.004 A 
ATOM     26  C   UNL     1      -1.223   8.001  -2.414  1.00  0.00     0.000 A 
ENDBRANCH  20  21
ENDBRANCH  17  20
ENDBRANCH   1  14
TORSDOF 7
ENDMDL
MODEL 4
REMARK VINA RESULT:    -6.240      2.797      6.015
REMARK INTER + INTRA:         -11.998
REMARK INTER:                  -9.125
REMARK INTRA:                  -2.873
REMARK UNBOUND:                -3.206
REMARK SMILES CC1(C)[C@H](C=C(Cl)Cl)[C@H]1C(=O)OCc1cccc(Oc2ccccc2)c1
REMARK SMILES IDX 13 1 12 2 10 3 11 4 9 5 4 6 2 7 1 8 3 9 5 10 7 11 6 12 8 13
REMARK SMILES IDX 14 14 26 15 15 16 18 17 16 18 17 19 19 20 20 21 21 22 25 23
REMARK SMILES IDX 22 24 24 25 23 26
REMARK H PARENT
REMARK Flexibility Score: inf
ROOT
ATOM      1  C   UNL     1      -5.121   2.961  -4.633  1.00  0.00     0.268 C 
ENDROOT
BRANCH   1   2
ATOM      2  O   UNL     1      -4.396   3.969  -3.940  1.00  0.00    -0.461 OA
BRANCH   2   3
ATOM      3  C   UNL     1      -4.874   4.303  -2.706  1.00  0.00     0.310 C 
ATOM      4  O   UNL     1      -6.016   4.143  -2.299  1.00  0.00    -0.252 OA
BRANCH   3   5
ATOM      5  C   UNL     1      -3.823   4.911  -1.851  1.00  0.00     0.113 C 
ATOM      6  C   UNL     1      -2.391   4.626  -2.178  1.00  0.00     0.035 C 
ATOM      7  C   UNL     1      -3.009   4.050  -0.938  1.00  0.00    -0.014 C 
ATOM      8  C   UNL     1      -2.554   4.596   0.374  1.00  0.00     0.012 C 
ATOM      9  C   UNL     1      -3.353   2.599  -0.886  1.00  0.00     0.012 C 
BRANCH   6  10
ATOM     10  C   UNL     1      -1.433   5.719  -2.084  1.00  0.00     0.011 C 
ATOM     11  Cl  UNL     1      -2.067   6.780  -4.478  1.00  0.00    -0.071 Cl
ATOM     12  C   UNL     1      -1.204   6.686  -2.986  1.00  0.00     0.103 C 
ATOM     13  Cl  UNL     1      -0.009   7.899  -2.682  1.00  0.00    -0.071 Cl
ENDBRANCH   6  10
ENDBRANCH   3   5
ENDBRANCH   2   3
ENDBRANCH   1   2
BRANCH   1  14
ATOM     14  C   UNL     1      -4.431   1.650  -4.466  1.00  0.00    -0.007 A 
ATOM     15  C   UNL     1      -3.050   1.608  -4.274  1.00  0.00     0.054 A 
ATOM     16  C   UNL     1      -5.167   0.466  -4.500  1.00  0.00     0.007 A 
ATOM     17  C   UNL     1      -2.405   0.381  -4.117  1.00  0.00     0.127 A 
ATOM     18  C   UNL     1      -4.522  -0.761  -4.344  1.00  0.00     0.004 A 
ATOM     19  C   UNL     1      -3.141  -0.803  -4.152  1.00  0.00     0.047 A 
BRANCH  17  20
ATOM     20  O   UNL     1      -1.058   0.340  -3.930  1.00  0.00    -0.457 OA
BRANCH  20  21
ATOM     21  C   UNL     1      -0.565   0.743  -2.700  1.00  0.00     0.127 A 
ATOM     22  C   UNL     1      -0.672  -0.114  -1.618  1.00  0.00     0.047 A 
ATOM     23  C   UNL     1       0.020   1.989  -2.584  1.00  0.00     0.047 A 
ATOM     24  C   UNL     1      -0.177   0.292  -0.380  1.00  0.00     0.004 A 
ATOM     25  C   UNL     1       0.517   2.394  -1.344  1.00  0.00     0.004 A 
ATOM     26  C   UNL     1       0.419   1.545  -0.243  1.00  0.00     0.000 A 
ENDBRANCH  20  21
ENDBRANCH  17  20
ENDBRANCH   1  14
TORSDOF 7
ENDMDL
MODEL 5
REMARK VINA RESULT:    -6.232      2.737      5.240
REMARK INTER + INTRA:         -11.988
REMARK INTER:                  -9.093
REMARK INTRA:                  -2.895
REMARK UNBOUND:                -3.206
REMARK SMILES CC1(C)[C@H](C=C(Cl)Cl)[C@H]1C(=O)OCc1cccc(Oc2ccccc2)c1
REMARK SMILES IDX 13 1 12 2 10 3 11 4 9 5 4 6 2 7 1 8 3 9 5 10 7 11 6 12 8 13
REMARK SMILES IDX 14 14 26 15 15 16 18 17 16 18 17 19 19 20 20 21 21 22 25 23
REMARK SMILES IDX 22 24 24 25 23 26
REMARK H PARENT
REMARK Flexibility Score: inf
ROOT
ATOM      1  C   UNL     1      -0.479   1.107  -1.126  1.00  0.00     0.268 C 
ENDROOT
BRANCH   1   2
ATOM      2  O   UNL     1      -0.514   2.527  -1.063  1.00  0.00    -0.461 OA
BRANCH   2   3
ATOM      3  C   UNL     1       0.622   3.168  -1.463  1.00  0.00     0.310 C 
ATOM      4  O   UNL     1       1.771   2.782  -1.303  1.00  0.00    -0.252 OA
BRANCH   3   5
ATOM      5  C   UNL     1       0.321   4.448  -2.153  1.00  0.00     0.113 C 
ATOM      6  C   UNL     1      -1.095   4.724  -2.550  1.00  0.00     0.035 C 
ATOM      7  C   UNL     1      -0.059   4.448  -3.600  1.00  0.00    -0.014 C 
ATOM      8  C   UNL     1       0.358   5.587  -4.468  1.00  0.00     0.012 C 
ATOM      9  C   UNL     1      -0.050   3.134  -4.305  1.00  0.00     0.012 C 
BRANCH   6  10
ATOM     10  C   UNL     1      -1.613   6.071  -2.361  1.00  0.00     0.011 C 
ATOM     11  Cl  UNL     1      -2.704   5.558   0.049  1.00  0.00    -0.071 Cl
ATOM     12  C   UNL     1      -2.305   6.543  -1.313  1.00  0.00     0.103 C 
ATOM     13  Cl  UNL     1      -2.836   8.189  -1.285  1.00  0.00    -0.071 Cl
ENDBRANCH   6  10
ENDBRANCH   3   5
ENDBRANCH   2   3
ENDBRANCH   1   2
BRANCH   1  14
ATOM     14  C   UNL     1      -1.541   0.625  -2.056  1.00  0.00    -0.007 A 
ATOM     15  C   UNL     1      -2.759   1.301  -2.134  1.00  0.00     0.054 A 
ATOM     16  C   UNL     1      -1.315  -0.500  -2.849  1.00  0.00     0.007 A 
ATOM     17  C   UNL     1      -3.751   0.850  -3.004  1.00  0.00     0.127 A 
ATOM     18  C   UNL     1      -2.308  -0.951  -3.719  1.00  0.00     0.004 A 
ATOM     19  C   UNL     1      -3.526  -0.275  -3.796  1.00  0.00     0.047 A 
BRANCH  17  20
ATOM     20  O   UNL     1      -4.940   1.509  -3.080  1.00  0.00    -0.457 OA
BRANCH  20  21
ATOM     21  C   UNL     1      -4.907   2.874  -3.312  1.00  0.00     0.127 A 
ATOM     22  C   UNL     1      -4.244   3.351  -4.430  1.00  0.00     0.047 A 
ATOM     23  C   UNL     1      -5.536   3.724  -2.422  1.00  0.00     0.047 A 
ATOM     24  C   UNL     1      -4.210   4.725  -4.663  1.00  0.00     0.004 A 
ATOM     25  C   UNL     1      -5.502   5.100  -2.657  1.00  0.00     0.004 A 
ATOM     26  C   UNL     1      -4.839   5.599  -3.778  1.00  0.00     0.000 A 
ENDBRANCH  20  21
ENDBRANCH  17  20
ENDBRANCH   1  14
TORSDOF 7
ENDMDL
