MODEL 1
REMARK VINA RESULT:    -6.958      0.000      0.000
REMARK INTER + INTRA:         -11.663
REMARK INTER:                 -10.212
REMARK INTRA:                  -1.451
REMARK UNBOUND:                -1.451
REMARK SMILES CC1(C)C(C=C(Br)Br)C1C(=O)OC(C#N)c1cccc(Oc2ccccc2)c1
REMARK SMILES IDX 13 1 12 2 10 3 11 4 9 5 4 6 2 7 1 8 3 9 5 10 7 11 6 12 8 13
REMARK SMILES IDX 16 14 28 15 17 16 20 17 18 18 19 19 21 20 22 21 23 22 27 23
REMARK SMILES IDX 24 24 26 25 25 26 14 27 15 28
REMARK H PARENT
REMARK Flexibility Score: inf
ROOT
ATOM      1  C   UNL     1      -4.201   1.504  -2.698  1.00  0.00     0.309 C
ENDROOT
BRANCH   1   2
ATOM      2  O   UNL     1      -2.868   1.621  -3.214  1.00  0.00    -0.442 OA
BRANCH   2   3
ATOM      3  C   UNL     1      -1.878   1.277  -2.349  1.00  0.00     0.311 C
ATOM      4  O   UNL     1      -1.653   0.166  -1.888  1.00  0.00    -0.252 OA
BRANCH   3   5
ATOM      5  C   UNL     1      -1.040   2.451  -1.990  1.00  0.00     0.113 C
ATOM      6  C   UNL     1      -0.219   2.382  -0.743  1.00  0.00     0.035 C
ATOM      7  C   UNL     1      -1.405   3.299  -0.814  1.00  0.00    -0.014 C
ATOM      8  C   UNL     1      -2.597   2.940   0.008  1.00  0.00     0.012 C
ATOM      9  C   UNL     1      -1.195   4.770  -0.949  1.00  0.00     0.012 C
BRANCH   6  10
ATOM     10  C   UNL     1      -0.273   1.166   0.055  1.00  0.00     0.001 C
ATOM     11  Br  UNL     1       2.482   1.232   0.753  1.00  0.00    -0.043 Br
ATOM     12  C   UNL     1       0.731   0.571   0.721  1.00  0.00     0.057 C
ATOM     13  Br  UNL     1       0.445  -1.005   1.696  1.00  0.00    -0.043 Br
ENDBRANCH   6  10
ENDBRANCH   3   5
ENDBRANCH   2   3
ENDBRANCH   1   2
BRANCH   1  14
ATOM     14  C   UNL     1      -4.914   2.806  -2.832  1.00  0.00     0.011 A
ATOM     15  C   UNL     1      -4.314   3.864  -3.517  1.00  0.00     0.055 A
ATOM     16  C   UNL     1      -6.182   2.968  -2.273  1.00  0.00     0.009 A
ATOM     17  C   UNL     1      -4.982   5.081  -3.642  1.00  0.00     0.127 A
ATOM     18  C   UNL     1      -6.849   4.187  -2.399  1.00  0.00     0.004 A
ATOM     19  C   UNL     1      -6.249   5.243  -3.083  1.00  0.00     0.047 A
BRANCH  17  20
ATOM     20  O   UNL     1      -4.396   6.114  -4.310  1.00  0.00    -0.457 OA
BRANCH  20  21
ATOM     21  C   UNL     1      -3.359   6.782  -3.679  1.00  0.00     0.127 A
ATOM     22  C   UNL     1      -2.103   6.773  -4.257  1.00  0.00     0.047 A
ATOM     23  C   UNL     1      -3.608   7.440  -2.488  1.00  0.00     0.047 A
ATOM     24  C   UNL     1      -1.058   7.446  -3.622  1.00  0.00     0.004 A
ATOM     25  C   UNL     1      -2.563   8.112  -1.853  1.00  0.00     0.004 A
ATOM     26  C   UNL     1      -1.289   8.116  -2.420  1.00  0.00     0.000 A
ENDBRANCH  20  21
ENDBRANCH  17  20
ENDBRANCH   1  14
BRANCH   1  27
ATOM     27  C   UNL     1      -4.899   0.401  -3.390  1.00  0.00     0.113 C
ATOM     28  N   UNL     1      -5.456  -0.464  -3.927  1.00  0.00    -0.194 NA
ENDBRANCH   1  27
TORSDOF 8
ENDMDL
MODEL 2
REMARK VINA RESULT:    -6.758      2.039      4.169
REMARK INTER + INTRA:         -11.370
REMARK INTER:                 -10.543
REMARK INTRA:                  -0.827
REMARK UNBOUND:                -1.451
REMARK SMILES CC1(C)C(C=C(Br)Br)C1C(=O)OC(C#N)c1cccc(Oc2ccccc2)c1
REMARK SMILES IDX 13 1 12 2 10 3 11 4 9 5 4 6 2 7 1 8 3 9 5 10 7 11 6 12 8 13
REMARK SMILES IDX 16 14 28 15 17 16 20 17 18 18 19 19 21 20 22 21 23 22 27 23
REMARK SMILES IDX 24 24 26 25 25 26 14 27 15 28
REMARK H PARENT
REMARK Flexibility Score: inf
ROOT
ATOM      1  C   UNL     1      -4.173   1.759  -2.455  1.00  0.00     0.309 C
ENDROOT
BRANCH   1   2
ATOM      2  O   UNL     1      -2.872   1.887  -3.045  1.00  0.00    -0.442 OA
BRANCH   2   3
ATOM      3  C   UNL     1      -1.842   1.420  -2.289  1.00  0.00     0.311 C
ATOM      4  O   UNL     1      -1.708   0.288  -1.845  1.00  0.00    -0.252 OA
BRANCH   3   5
ATOM      5  C   UNL     1      -0.832   2.479  -2.035  1.00  0.00     0.113 C
ATOM      6  C   UNL     1       0.075   2.327  -0.856  1.00  0.00     0.035 C
ATOM      7  C   UNL     1      -0.983   3.391  -0.860  1.00  0.00    -0.014 C
ATOM      8  C   UNL     1      -2.139   3.210   0.066  1.00  0.00     0.012 C
ATOM      9  C   UNL     1      -0.596   4.819  -1.057  1.00  0.00     0.012 C
BRANCH   6  10
ATOM     10  C   UNL     1      -0.069   1.145  -0.021  1.00  0.00     0.001 C
ATOM     11  Br  UNL     1       2.620   1.188   0.898  1.00  0.00    -0.043 Br
ATOM     12  C   UNL     1       0.864   0.559   0.748  1.00  0.00     0.057 C
ATOM     13  Br  UNL     1       0.465  -0.972   1.756  1.00  0.00    -0.043 Br
ENDBRANCH   6  10
ENDBRANCH   3   5
ENDBRANCH   2   3
ENDBRANCH   1   2
BRANCH   1  14
ATOM     14  C   UNL     1      -4.888   3.065  -2.512  1.00  0.00     0.011 A
ATOM     15  C   UNL     1      -6.281   3.103  -2.434  1.00  0.00     0.055 A
ATOM     16  C   UNL     1      -4.165   4.251  -2.641  1.00  0.00     0.009 A
ATOM     17  C   UNL     1      -6.949   4.325  -2.487  1.00  0.00     0.127 A
ATOM     18  C   UNL     1      -4.835   5.474  -2.694  1.00  0.00     0.004 A
ATOM     19  C   UNL     1      -6.227   5.511  -2.617  1.00  0.00     0.047 A
BRANCH  17  20
ATOM     20  O   UNL     1      -8.308   4.362  -2.413  1.00  0.00    -0.457 OA
BRANCH  20  21
ATOM     21  C   UNL     1      -8.882   4.425  -1.153  1.00  0.00     0.127 A
ATOM     22  C   UNL     1      -8.742   5.579  -0.406  1.00  0.00     0.047 A
ATOM     23  C   UNL     1      -9.581   3.330  -0.676  1.00  0.00     0.047 A
ATOM     24  C   UNL     1      -9.319   5.642   0.863  1.00  0.00     0.004 A
ATOM     25  C   UNL     1     -10.157   3.393   0.592  1.00  0.00     0.004 A
ATOM     26  C   UNL     1     -10.028   4.549   1.362  1.00  0.00     0.000 A
ENDBRANCH  20  21
ENDBRANCH  17  20
ENDBRANCH   1  14
BRANCH   1  27
ATOM     27  C   UNL     1      -4.913   0.676  -3.134  1.00  0.00     0.113 C
ATOM     28  N   UNL     1      -5.486  -0.176  -3.675  1.00  0.00    -0.194 NA
ENDBRANCH   1  27
TORSDOF 8
ENDMDL
MODEL 3
REMARK VINA RESULT:    -6.528      3.453      5.766
REMARK INTER + INTRA:         -11.032
REMARK INTER:                  -9.939
REMARK INTRA:                  -1.093
REMARK UNBOUND:                -1.451
REMARK SMILES CC1(C)C(C=C(Br)Br)C1C(=O)OC(C#N)c1cccc(Oc2ccccc2)c1
REMARK SMILES IDX 13 1 12 2 10 3 11 4 9 5 4 6 2 7 1 8 3 9 5 10 7 11 6 12 8 13
REMARK SMILES IDX 16 14 28 15 17 16 20 17 18 18 19 19 21 20 22 21 23 22 27 23
REMARK SMILES IDX 24 24 26 25 25 26 14 27 15 28
REMARK H PARENT
REMARK Flexibility Score: inf
ROOT
ATOM      1  C   UNL     1      -0.344   1.392  -1.099  1.00  0.00     0.309 C
ENDROOT
BRANCH   1   2
ATOM      2  O   UNL     1       0.782   2.014  -1.732  1.00  0.00    -0.442 OA
BRANCH   2   3
ATOM      3  C   UNL     1       0.771   3.374  -1.732  1.00  0.00     0.311 C
ATOM      4  O   UNL     1       0.030   4.105  -1.090  1.00  0.00    -0.252 OA
BRANCH   3   5
ATOM      5  C   UNL     1       1.809   3.925  -2.642  1.00  0.00     0.113 C
ATOM      6  C   UNL     1       1.376   4.847  -3.736  1.00  0.00     0.035 C
ATOM      7  C   UNL     1       1.873   3.470  -4.065  1.00  0.00    -0.014 C
ATOM      8  C   UNL     1       0.872   2.484  -4.566  1.00  0.00     0.012 C
ATOM      9  C   UNL     1       3.230   3.296  -4.660  1.00  0.00     0.012 C
BRANCH   6  10
ATOM     10  C   UNL     1      -0.038   5.169  -3.850  1.00  0.00     0.001 C
ATOM     11  Br  UNL     1       0.189   7.665  -2.508  1.00  0.00    -0.043 Br
ATOM     12  C   UNL     1      -0.674   6.267  -3.405  1.00  0.00     0.057 C
ATOM     13  Br  UNL     1      -2.519   6.486  -3.659  1.00  0.00    -0.043 Br
ENDBRANCH   6  10
ENDBRANCH   3   5
ENDBRANCH   2   3
ENDBRANCH   1   2
BRANCH   1  14
ATOM     14  C   UNL     1      -1.160   0.666  -2.113  1.00  0.00     0.011 A
ATOM     15  C   UNL     1      -2.062   1.366  -2.916  1.00  0.00     0.055 A
ATOM     16  C   UNL     1      -1.021  -0.714  -2.262  1.00  0.00     0.009 A
ATOM     17  C   UNL     1      -2.824   0.686  -3.865  1.00  0.00     0.127 A
ATOM     18  C   UNL     1      -1.784  -1.394  -3.211  1.00  0.00     0.004 A
ATOM     19  C   UNL     1      -2.686  -0.694  -4.012  1.00  0.00     0.047 A
BRANCH  17  20
ATOM     20  O   UNL     1      -3.705   1.368  -4.648  1.00  0.00    -0.457 OA
BRANCH  20  21
ATOM     21  C   UNL     1      -4.556   2.266  -4.026  1.00  0.00     0.127 A
ATOM     22  C   UNL     1      -5.238   1.871  -2.889  1.00  0.00     0.047 A
ATOM     23  C   UNL     1      -4.703   3.535  -4.557  1.00  0.00     0.047 A
ATOM     24  C   UNL     1      -6.096   2.775  -2.262  1.00  0.00     0.004 A
ATOM     25  C   UNL     1      -5.561   4.438  -3.931  1.00  0.00     0.004 A
ATOM     26  C   UNL     1      -6.257   4.060  -2.783  1.00  0.00     0.000 A
ENDBRANCH  20  21
ENDBRANCH  17  20
ENDBRANCH   1  14
BRANCH   1  27
ATOM     27  C   UNL     1       0.130   0.510  -0.014  1.00  0.00     0.113 C
ATOM     28  N   UNL     1       0.505  -0.191   0.831  1.00  0.00    -0.194 NA
ENDBRANCH   1  27
TORSDOF 8
ENDMDL
MODEL 4
REMARK VINA RESULT:    -6.462      3.178      5.142
REMARK INTER + INTRA:         -10.935
REMARK INTER:                  -9.801
REMARK INTRA:                  -1.135
REMARK UNBOUND:                -1.451
REMARK SMILES CC1(C)C(C=C(Br)Br)C1C(=O)OC(C#N)c1cccc(Oc2ccccc2)c1
REMARK SMILES IDX 13 1 12 2 10 3 11 4 9 5 4 6 2 7 1 8 3 9 5 10 7 11 6 12 8 13
REMARK SMILES IDX 16 14 28 15 17 16 20 17 18 18 19 19 21 20 22 21 23 22 27 23
REMARK SMILES IDX 24 24 26 25 25 26 14 27 15 28
REMARK H PARENT
REMARK Flexibility Score: inf
ROOT
ATOM      1  C   UNL     1       0.002   1.188  -1.823  1.00  0.00     0.309 C
ENDROOT
BRANCH   1   2
ATOM      2  O   UNL     1      -1.407   0.918  -1.822  1.00  0.00    -0.442 OA
BRANCH   2   3
ATOM      3  C   UNL     1      -1.813  -0.055  -2.681  1.00  0.00     0.311 C
ATOM      4  O   UNL     1      -1.475  -1.231  -2.676  1.00  0.00    -0.252 OA
BRANCH   3   5
ATOM      5  C   UNL     1      -2.764   0.476  -3.691  1.00  0.00     0.113 C
ATOM      6  C   UNL     1      -3.565   1.689  -3.342  1.00  0.00     0.035 C
ATOM      7  C   UNL     1      -4.238   0.354  -3.468  1.00  0.00    -0.014 C
ATOM      8  C   UNL     1      -4.740  -0.280  -2.213  1.00  0.00     0.012 C
ATOM      9  C   UNL     1      -5.082   0.060  -4.663  1.00  0.00     0.012 C
BRANCH   6  10
ATOM     10  C   UNL     1      -3.367   2.296  -2.034  1.00  0.00     0.001 C
ATOM     11  Br  UNL     1      -5.423   4.230  -2.368  1.00  0.00    -0.043 Br
ATOM     12  C   UNL     1      -4.035   3.329  -1.493  1.00  0.00     0.057 C
ATOM     13  Br  UNL     1      -3.617   3.961   0.222  1.00  0.00    -0.043 Br
ENDBRANCH   6  10
ENDBRANCH   3   5
ENDBRANCH   2   3
ENDBRANCH   1   2
BRANCH   1  14
ATOM     14  C   UNL     1       0.277   2.449  -2.569  1.00  0.00     0.011 A
ATOM     15  C   UNL     1       0.153   3.682  -1.927  1.00  0.00     0.055 A
ATOM     16  C   UNL     1       0.660   2.396  -3.910  1.00  0.00     0.009 A
ATOM     17  C   UNL     1       0.411   4.860  -2.625  1.00  0.00     0.127 A
ATOM     18  C   UNL     1       0.917   3.576  -4.607  1.00  0.00     0.004 A
ATOM     19  C   UNL     1       0.793   4.808  -3.966  1.00  0.00     0.047 A
BRANCH  17  20
ATOM     20  O   UNL     1       0.290   6.064  -1.999  1.00  0.00    -0.457 OA
BRANCH  20  21
ATOM     21  C   UNL     1      -0.838   6.820  -2.273  1.00  0.00     0.127 A
ATOM     22  C   UNL     1      -1.994   6.589  -1.551  1.00  0.00     0.047 A
ATOM     23  C   UNL     1      -0.778   7.786  -3.261  1.00  0.00     0.047 A
ATOM     24  C   UNL     1      -3.131   7.351  -1.826  1.00  0.00     0.004 A
ATOM     25  C   UNL     1      -1.914   8.547  -3.537  1.00  0.00     0.004 A
ATOM     26  C   UNL     1      -3.090   8.330  -2.819  1.00  0.00     0.000 A
ENDBRANCH  20  21
ENDBRANCH  17  20
ENDBRANCH   1  14
BRANCH   1  27
ATOM     27  C   UNL     1       0.492   1.233  -0.431  1.00  0.00     0.113 C
ATOM     28  N   UNL     1       0.887   1.271   0.660  1.00  0.00    -0.194 NA
ENDBRANCH   1  27
TORSDOF 8
ENDMDL
MODEL 5
REMARK VINA RESULT:    -6.340      3.102      5.447
REMARK INTER + INTRA:         -10.757
REMARK INTER:                  -9.648
REMARK INTRA:                  -1.109
REMARK UNBOUND:                -1.451
REMARK SMILES CC1(C)C(C=C(Br)Br)C1C(=O)OC(C#N)c1cccc(Oc2ccccc2)c1
REMARK SMILES IDX 13 1 12 2 10 3 11 4 9 5 4 6 2 7 1 8 3 9 5 10 7 11 6 12 8 13
REMARK SMILES IDX 16 14 28 15 17 16 20 17 18 18 19 19 21 20 22 21 23 22 27 23
REMARK SMILES IDX 24 24 26 25 25 26 14 27 15 28
REMARK H PARENT
REMARK Flexibility Score: inf
ROOT
ATOM      1  C   UNL     1      -2.614   3.642  -0.323  1.00  0.00     0.309 C
ENDROOT
BRANCH   1   2
ATOM      2  O   UNL     1      -1.406   3.804  -1.078  1.00  0.00    -0.442 OA
BRANCH   2   3
ATOM      3  C   UNL     1      -0.971   5.086  -1.211  1.00  0.00     0.311 C
ATOM      4  O   UNL     1      -0.069   5.627  -0.587  1.00  0.00    -0.252 OA
BRANCH   3   5
ATOM      5  C   UNL     1      -1.742   5.815  -2.251  1.00  0.00     0.113 C
ATOM      6  C   UNL     1      -1.230   5.799  -3.655  1.00  0.00     0.035 C
ATOM      7  C   UNL     1      -1.189   7.066  -2.853  1.00  0.00    -0.014 C
ATOM      8  C   UNL     1       0.152   7.559  -2.421  1.00  0.00     0.012 C
ATOM      9  C   UNL     1      -2.159   8.162  -3.149  1.00  0.00     0.012 C
BRANCH   6  10
ATOM     10  C   UNL     1      -0.007   5.063  -3.938  1.00  0.00     0.001 C
ATOM     11  Br  UNL     1      -1.349   2.664  -4.663  1.00  0.00    -0.043 Br
ATOM     12  C   UNL     1       0.113   3.790  -4.352  1.00  0.00     0.057 C
ATOM     13  Br  UNL     1       1.799   3.029  -4.660  1.00  0.00    -0.043 Br
ENDBRANCH   6  10
ENDBRANCH   3   5
ENDBRANCH   2   3
ENDBRANCH   1   2
BRANCH   1  14
ATOM     14  C   UNL     1      -3.700   3.130  -1.205  1.00  0.00     0.011 A
ATOM     15  C   UNL     1      -4.771   3.958  -1.547  1.00  0.00     0.055 A
ATOM     16  C   UNL     1      -3.646   1.824  -1.691  1.00  0.00     0.009 A
ATOM     17  C   UNL     1      -5.786   3.478  -2.374  1.00  0.00     0.127 A
ATOM     18  C   UNL     1      -4.663   1.345  -2.518  1.00  0.00     0.004 A
ATOM     19  C   UNL     1      -5.733   2.171  -2.859  1.00  0.00     0.047 A
BRANCH  17  20
ATOM     20  O   UNL     1      -6.832   4.285  -2.707  1.00  0.00    -0.457 OA
BRANCH  20  21
ATOM     21  C   UNL     1      -7.795   4.522  -1.740  1.00  0.00     0.127 A
ATOM     22  C   UNL     1      -8.544   3.463  -1.262  1.00  0.00     0.047 A
ATOM     23  C   UNL     1      -7.982   5.812  -1.277  1.00  0.00     0.047 A
ATOM     24  C   UNL     1      -9.515   3.701  -0.288  1.00  0.00     0.004 A
ATOM     25  C   UNL     1      -8.952   6.051  -0.305  1.00  0.00     0.004 A
ATOM     26  C   UNL     1      -9.718   4.995   0.191  1.00  0.00     0.000 A
ENDBRANCH  20  21
ENDBRANCH  17  20
ENDBRANCH   1  14
BRANCH   1  27
ATOM     27  C   UNL     1      -2.355   2.758   0.831  1.00  0.00     0.113 C
ATOM     28  N   UNL     1      -2.142   2.069   1.741  1.00  0.00    -0.194 NA
ENDBRANCH   1  27
TORSDOF 8
ENDMDL
