MODEL 1
REMARK VINA RESULT:    -7.893      0.000      0.000
REMARK INTER + INTRA:         -12.306
REMARK INTER:                 -11.584
REMARK INTRA:                  -0.721
REMARK UNBOUND:                -0.721
REMARK SMILES CC1(C)C(C=C(Br)Br)C1C(=O)OC(C#N)c1cccc(Oc2ccccc2)c1
REMARK SMILES IDX 13 1 12 2 10 3 11 4 9 5 4 6 2 7 1 8 3 9 5 10 7 11 6 12 8 13
REMARK SMILES IDX 16 14 28 15 17 16 20 17 18 18 19 19 21 20 22 21 23 22 27 23
REMARK SMILES IDX 24 24 26 25 25 26 14 27 15 28
REMARK H PARENT
REMARK Flexibility Score: inf
ROOT
ATOM      1  C   UNL     1      -3.825   1.243  -3.906  1.00  0.00     0.309 C
ENDROOT
BRANCH   1   2
ATOM      2  O   UNL     1      -4.311   2.395  -3.203  1.00  0.00    -0.442 OA
BRANCH   2   3
ATOM      3  C   UNL     1      -4.246   3.566  -3.892  1.00  0.00     0.311 C
ATOM      4  O   UNL     1      -3.365   3.920  -4.663  1.00  0.00    -0.252 OA
BRANCH   3   5
ATOM      5  C   UNL     1      -5.420   4.430  -3.603  1.00  0.00     0.113 C
ATOM      6  C   UNL     1      -5.179   5.768  -2.980  1.00  0.00     0.035 C
ATOM      7  C   UNL     1      -5.837   4.677  -2.188  1.00  0.00    -0.014 C
ATOM      8  C   UNL     1      -5.049   4.070  -1.075  1.00  0.00     0.012 C
ATOM      9  C   UNL     1      -7.303   4.740  -1.916  1.00  0.00     0.012 C
BRANCH   6  10
ATOM     10  C   UNL     1      -3.808   6.163  -2.697  1.00  0.00     0.001 C
ATOM     11  Br  UNL     1      -4.367   8.950  -2.709  1.00  0.00    -0.043 Br
ATOM     12  C   UNL     1      -3.318   7.407  -2.558  1.00  0.00     0.057 C
ATOM     13  Br  UNL     1      -1.502   7.697  -2.191  1.00  0.00    -0.043 Br
ENDBRANCH   6  10
ENDBRANCH   3   5
ENDBRANCH   2   3
ENDBRANCH   1   2
BRANCH   1  14
ATOM     14  C   UNL     1      -2.712   0.613  -3.140  1.00  0.00     0.011 A
ATOM     15  C   UNL     1      -2.154   1.275  -2.046  1.00  0.00     0.055 A
ATOM     16  C   UNL     1      -2.230  -0.641  -3.516  1.00  0.00     0.009 A
ATOM     17  C   UNL     1      -1.114   0.685  -1.330  1.00  0.00     0.127 A
ATOM     18  C   UNL     1      -1.189  -1.231  -2.799  1.00  0.00     0.004 A
ATOM     19  C   UNL     1      -0.630  -0.568  -1.707  1.00  0.00     0.047 A
BRANCH  17  20
ATOM     20  O   UNL     1      -0.568   1.331  -0.263  1.00  0.00    -0.457 OA
BRANCH  20  21
ATOM     21  C   UNL     1       0.807   1.496  -0.246  1.00  0.00     0.127 A
ATOM     22  C   UNL     1       1.531   1.007   0.826  1.00  0.00     0.047 A
ATOM     23  C   UNL     1       1.421   2.147  -1.301  1.00  0.00     0.047 A
ATOM     24  C   UNL     1       2.916   1.173   0.844  1.00  0.00     0.004 A
ATOM     25  C   UNL     1       2.805   2.314  -1.283  1.00  0.00     0.004 A
ATOM     26  C   UNL     1       3.553   1.827  -0.211  1.00  0.00     0.000 A
ENDBRANCH  20  21
ENDBRANCH  17  20
ENDBRANCH   1  14
BRANCH   1  27
ATOM     27  C   UNL     1      -4.945   0.312  -4.151  1.00  0.00     0.113 C
ATOM     28  N   UNL     1      -5.825  -0.422  -4.333  1.00  0.00    -0.194 NA
ENDBRANCH   1  27
TORSDOF 8
ENDMDL
MODEL 2
REMARK VINA RESULT:    -7.306      2.880      5.448
REMARK INTER + INTRA:         -11.444
REMARK INTER:                 -10.964
REMARK INTRA:                  -0.480
REMARK UNBOUND:                -0.721
REMARK SMILES CC1(C)C(C=C(Br)Br)C1C(=O)OC(C#N)c1cccc(Oc2ccccc2)c1
REMARK SMILES IDX 13 1 12 2 10 3 11 4 9 5 4 6 2 7 1 8 3 9 5 10 7 11 6 12 8 13
REMARK SMILES IDX 16 14 28 15 17 16 20 17 18 18 19 19 21 20 22 21 23 22 27 23
REMARK SMILES IDX 24 24 26 25 25 26 14 27 15 28
REMARK H PARENT
REMARK Flexibility Score: inf
ROOT
ATOM      1  C   UNL     1       0.686   3.424  -1.973  1.00  0.00     0.309 C
ENDROOT
BRANCH   1   2
ATOM      2  O   UNL     1      -0.500   4.114  -2.390  1.00  0.00    -0.442 OA
BRANCH   2   3
ATOM      3  C   UNL     1      -1.208   4.709  -1.393  1.00  0.00     0.311 C
ATOM      4  O   UNL     1      -2.032   4.182  -0.659  1.00  0.00    -0.252 OA
BRANCH   3   5
ATOM      5  C   UNL     1      -0.866   6.149  -1.270  1.00  0.00     0.113 C
ATOM      6  C   UNL     1      -1.906   7.159  -1.635  1.00  0.00     0.035 C
ATOM      7  C   UNL     1      -0.691   6.984  -2.498  1.00  0.00    -0.014 C
ATOM      8  C   UNL     1      -0.889   6.365  -3.841  1.00  0.00     0.012 C
ATOM      9  C   UNL     1       0.391   8.012  -2.470  1.00  0.00     0.012 C
BRANCH   6  10
ATOM     10  C   UNL     1      -3.205   6.682  -2.084  1.00  0.00     0.001 C
ATOM     11  Br  UNL     1      -4.181   9.270  -2.741  1.00  0.00    -0.043 Br
ATOM     12  C   UNL     1      -4.233   7.408  -2.558  1.00  0.00     0.057 C
ATOM     13  Br  UNL     1      -5.834   6.588  -3.086  1.00  0.00    -0.043 Br
ENDBRANCH   6  10
ENDBRANCH   3   5
ENDBRANCH   2   3
ENDBRANCH   1   2
BRANCH   1  14
ATOM     14  C   UNL     1       0.352   2.020  -1.599  1.00  0.00     0.011 A
ATOM     15  C   UNL     1      -0.389   1.222  -2.471  1.00  0.00     0.055 A
ATOM     16  C   UNL     1       0.782   1.504  -0.376  1.00  0.00     0.009 A
ATOM     17  C   UNL     1      -0.701  -0.091  -2.121  1.00  0.00     0.127 A
ATOM     18  C   UNL     1       0.469   0.190  -0.026  1.00  0.00     0.004 A
ATOM     19  C   UNL     1      -0.272  -0.607  -0.898  1.00  0.00     0.047 A
BRANCH  17  20
ATOM     20  O   UNL     1      -1.424  -0.869  -2.971  1.00  0.00    -0.457 OA
BRANCH  20  21
ATOM     21  C   UNL     1      -2.725  -0.481  -3.251  1.00  0.00     0.127 A
ATOM     22  C   UNL     1      -3.366   0.391  -2.390  1.00  0.00     0.047 A
ATOM     23  C   UNL     1      -3.347  -0.975  -4.383  1.00  0.00     0.047 A
ATOM     24  C   UNL     1      -4.676   0.782  -2.671  1.00  0.00     0.004 A
ATOM     25  C   UNL     1      -4.656  -0.584  -4.663  1.00  0.00     0.004 A
ATOM     26  C   UNL     1      -5.321   0.295  -3.808  1.00  0.00     0.000 A
ENDBRANCH  20  21
ENDBRANCH  17  20
ENDBRANCH   1  14
BRANCH   1  27
ATOM     27  C   UNL     1       1.699   3.500  -3.045  1.00  0.00     0.113 C
ATOM     28  N   UNL     1       2.503   3.558  -3.880  1.00  0.00    -0.194 NA
ENDBRANCH   1  27
TORSDOF 8
ENDMDL
MODEL 3
REMARK VINA RESULT:    -7.264      2.690      6.297
REMARK INTER + INTRA:         -11.382
REMARK INTER:                 -10.095
REMARK INTRA:                  -1.287
REMARK UNBOUND:                -0.721
REMARK SMILES CC1(C)C(C=C(Br)Br)C1C(=O)OC(C#N)c1cccc(Oc2ccccc2)c1
REMARK SMILES IDX 13 1 12 2 10 3 11 4 9 5 4 6 2 7 1 8 3 9 5 10 7 11 6 12 8 13
REMARK SMILES IDX 16 14 28 15 17 16 20 17 18 18 19 19 21 20 22 21 23 22 27 23
REMARK SMILES IDX 24 24 26 25 25 26 14 27 15 28
REMARK H PARENT
REMARK Flexibility Score: inf
ROOT
ATOM      1  C   UNL     1      -4.710   1.408  -2.912  1.00  0.00     0.309 C
ENDROOT
BRANCH   1   2
ATOM      2  O   UNL     1      -3.383   1.659  -3.397  1.00  0.00    -0.442 OA
BRANCH   2   3
ATOM      3  C   UNL     1      -2.427   1.782  -2.437  1.00  0.00     0.311 C
ATOM      4  O   UNL     1      -1.849   0.877  -1.853  1.00  0.00    -0.252 OA
BRANCH   3   5
ATOM      5  C   UNL     1      -2.132   3.209  -2.147  1.00  0.00     0.113 C
ATOM      6  C   UNL     1      -1.108   3.523  -1.104  1.00  0.00     0.035 C
ATOM      7  C   UNL     1      -2.558   3.811  -0.846  1.00  0.00    -0.014 C
ATOM      8  C   UNL     1      -3.255   2.961   0.163  1.00  0.00     0.012 C
ATOM      9  C   UNL     1      -3.050   5.219  -0.880  1.00  0.00     0.012 C
BRANCH   6  10
ATOM     10  C   UNL     1      -0.444   2.417  -0.431  1.00  0.00     0.001 C
ATOM     11  Br  UNL     1       2.022   2.767  -1.802  1.00  0.00    -0.043 Br
ATOM     12  C   UNL     1       0.817   1.984  -0.602  1.00  0.00     0.057 C
ATOM     13  Br  UNL     1       1.481   0.528   0.375  1.00  0.00    -0.043 Br
ENDBRANCH   6  10
ENDBRANCH   3   5
ENDBRANCH   2   3
ENDBRANCH   1   2
BRANCH   1  14
ATOM     14  C   UNL     1      -5.480   2.683  -2.856  1.00  0.00     0.011 A
ATOM     15  C   UNL     1      -5.086   3.772  -3.635  1.00  0.00     0.055 A
ATOM     16  C   UNL     1      -6.596   2.787  -2.025  1.00  0.00     0.009 A
ATOM     17  C   UNL     1      -5.808   4.963  -3.582  1.00  0.00     0.127 A
ATOM     18  C   UNL     1      -7.317   3.980  -1.973  1.00  0.00     0.004 A
ATOM     19  C   UNL     1      -6.923   5.068  -2.751  1.00  0.00     0.047 A
BRANCH  17  20
ATOM     20  O   UNL     1      -5.424   6.027  -4.341  1.00  0.00    -0.457 OA
BRANCH  20  21
ATOM     21  C   UNL     1      -4.381   6.808  -3.872  1.00  0.00     0.127 A
ATOM     22  C   UNL     1      -4.649   7.811  -2.958  1.00  0.00     0.047 A
ATOM     23  C   UNL     1      -3.098   6.566  -4.330  1.00  0.00     0.047 A
ATOM     24  C   UNL     1      -3.599   8.599  -2.486  1.00  0.00     0.004 A
ATOM     25  C   UNL     1      -2.049   7.354  -3.858  1.00  0.00     0.004 A
ATOM     26  C   UNL     1      -2.298   8.370  -2.936  1.00  0.00     0.000 A
ENDBRANCH  20  21
ENDBRANCH  17  20
ENDBRANCH   1  14
BRANCH   1  27
ATOM     27  C   UNL     1      -5.357   0.390  -3.764  1.00  0.00     0.113 C
ATOM     28  N   UNL     1      -5.875  -0.409  -4.428  1.00  0.00    -0.194 NA
ENDBRANCH   1  27
TORSDOF 8
ENDMDL
MODEL 4
REMARK VINA RESULT:    -7.203      2.095      6.118
REMARK INTER + INTRA:         -11.293
REMARK INTER:                  -9.797
REMARK INTRA:                  -1.496
REMARK UNBOUND:                -0.721
REMARK SMILES CC1(C)C(C=C(Br)Br)C1C(=O)OC(C#N)c1cccc(Oc2ccccc2)c1
REMARK SMILES IDX 13 1 12 2 10 3 11 4 9 5 4 6 2 7 1 8 3 9 5 10 7 11 6 12 8 13
REMARK SMILES IDX 16 14 28 15 17 16 20 17 18 18 19 19 21 20 22 21 23 22 27 23
REMARK SMILES IDX 24 24 26 25 25 26 14 27 15 28
REMARK H PARENT
REMARK Flexibility Score: inf
ROOT
ATOM      1  C   UNL     1      -4.450   1.211  -2.852  1.00  0.00     0.309 C
ENDROOT
BRANCH   1   2
ATOM      2  O   UNL     1      -3.086   1.339  -3.275  1.00  0.00    -0.442 OA
BRANCH   2   3
ATOM      3  C   UNL     1      -2.161   0.827  -2.419  1.00  0.00     0.311 C
ATOM      4  O   UNL     1      -1.444  -0.146  -2.604  1.00  0.00    -0.252 OA
BRANCH   3   5
ATOM      5  C   UNL     1      -2.101   1.609  -1.157  1.00  0.00     0.113 C
ATOM      6  C   UNL     1      -1.269   2.851  -1.130  1.00  0.00     0.035 C
ATOM      7  C   UNL     1      -0.839   1.640  -0.356  1.00  0.00    -0.014 C
ATOM      8  C   UNL     1       0.362   0.904  -0.849  1.00  0.00     0.012 C
ATOM      9  C   UNL     1      -0.979   1.623   1.130  1.00  0.00     0.012 C
BRANCH   6  10
ATOM     10  C   UNL     1      -0.568   3.239  -2.344  1.00  0.00     0.001 C
ATOM     11  Br  UNL     1       0.232   5.776  -1.341  1.00  0.00    -0.043 Br
ATOM     12  C   UNL     1       0.088   4.386  -2.588  1.00  0.00     0.057 C
ATOM     13  Br  UNL     1       0.932   4.688  -4.235  1.00  0.00    -0.043 Br
ENDBRANCH   6  10
ENDBRANCH   3   5
ENDBRANCH   2   3
ENDBRANCH   1   2
BRANCH   1  14
ATOM     14  C   UNL     1      -5.130   2.536  -2.920  1.00  0.00     0.011 A
ATOM     15  C   UNL     1      -4.641   3.529  -3.770  1.00  0.00     0.055 A
ATOM     16  C   UNL     1      -6.256   2.782  -2.135  1.00  0.00     0.009 A
ATOM     17  C   UNL     1      -5.278   4.767  -3.833  1.00  0.00     0.127 A
ATOM     18  C   UNL     1      -6.892   4.022  -2.198  1.00  0.00     0.004 A
ATOM     19  C   UNL     1      -6.403   5.015  -3.047  1.00  0.00     0.047 A
BRANCH  17  20
ATOM     20  O   UNL     1      -4.801   5.737  -4.662  1.00  0.00    -0.457 OA
BRANCH  20  21
ATOM     21  C   UNL     1      -3.858   6.614  -4.150  1.00  0.00     0.127 A
ATOM     22  C   UNL     1      -2.566   6.575  -4.642  1.00  0.00     0.047 A
ATOM     23  C   UNL     1      -4.234   7.505  -3.161  1.00  0.00     0.047 A
ATOM     24  C   UNL     1      -1.616   7.457  -4.127  1.00  0.00     0.004 A
ATOM     25  C   UNL     1      -3.284   8.387  -2.646  1.00  0.00     0.004 A
ATOM     26  C   UNL     1      -1.975   8.364  -3.129  1.00  0.00     0.000 A
ENDBRANCH  20  21
ENDBRANCH  17  20
ENDBRANCH   1  14
BRANCH   1  27
ATOM     27  C   UNL     1      -5.122   0.185  -3.675  1.00  0.00     0.113 C
ATOM     28  N   UNL     1      -5.657  -0.625  -4.312  1.00  0.00    -0.194 NA
ENDBRANCH   1  27
TORSDOF 8
ENDMDL
MODEL 5
REMARK VINA RESULT:    -7.101      2.000      6.248
REMARK INTER + INTRA:         -11.144
REMARK INTER:                  -9.926
REMARK INTRA:                  -1.218
REMARK UNBOUND:                -0.721
REMARK SMILES CC1(C)C(C=C(Br)Br)C1C(=O)OC(C#N)c1cccc(Oc2ccccc2)c1
REMARK SMILES IDX 13 1 12 2 10 3 11 4 9 5 4 6 2 7 1 8 3 9 5 10 7 11 6 12 8 13
REMARK SMILES IDX 16 14 28 15 17 16 20 17 18 18 19 19 21 20 22 21 23 22 27 23
REMARK SMILES IDX 24 24 26 25 25 26 14 27 15 28
REMARK H PARENT
REMARK Flexibility Score: inf
ROOT
ATOM      1  C   UNL     1      -2.415   1.277  -3.331  1.00  0.00     0.309 C
ENDROOT
BRANCH   1   2
ATOM      2  O   UNL     1      -1.333   1.994  -3.942  1.00  0.00    -0.442 OA
BRANCH   2   3
ATOM      3  C   UNL     1      -0.192   2.063  -3.205  1.00  0.00     0.311 C
ATOM      4  O   UNL     1       0.931   2.329  -3.609  1.00  0.00    -0.252 OA
BRANCH   3   5
ATOM      5  C   UNL     1      -0.454   1.765  -1.773  1.00  0.00     0.113 C
ATOM      6  C   UNL     1      -0.312   2.873  -0.780  1.00  0.00     0.035 C
ATOM      7  C   UNL     1       0.677   1.745  -0.794  1.00  0.00    -0.014 C
ATOM      8  C   UNL     1       2.060   2.053  -1.264  1.00  0.00     0.012 C
ATOM      9  C   UNL     1       0.629   0.705   0.275  1.00  0.00     0.012 C
BRANCH   6  10
ATOM     10  C   UNL     1       0.065   4.192  -1.265  1.00  0.00     0.001 C
ATOM     11  Br  UNL     1      -2.476   5.358  -0.751  1.00  0.00    -0.043 Br
ATOM     12  C   UNL     1      -0.693   5.300  -1.321  1.00  0.00     0.057 C
ATOM     13  Br  UNL     1      -0.006   6.912  -1.988  1.00  0.00    -0.043 Br
ENDBRANCH   6  10
ENDBRANCH   3   5
ENDBRANCH   2   3
ENDBRANCH   1   2
BRANCH   1  14
ATOM     14  C   UNL     1      -3.626   2.144  -3.264  1.00  0.00     0.011 A
ATOM     15  C   UNL     1      -3.667   3.343  -3.977  1.00  0.00     0.055 A
ATOM     16  C   UNL     1      -4.719   1.756  -2.490  1.00  0.00     0.009 A
ATOM     17  C   UNL     1      -4.800   4.153  -3.915  1.00  0.00     0.127 A
ATOM     18  C   UNL     1      -5.852   2.567  -2.428  1.00  0.00     0.004 A
ATOM     19  C   UNL     1      -5.893   3.766  -3.140  1.00  0.00     0.047 A
BRANCH  17  20
ATOM     20  O   UNL     1      -4.840   5.323  -4.610  1.00  0.00    -0.457 OA
BRANCH  20  21
ATOM     21  C   UNL     1      -4.386   6.466  -3.972  1.00  0.00     0.127 A
ATOM     22  C   UNL     1      -5.231   7.135  -3.107  1.00  0.00     0.047 A
ATOM     23  C   UNL     1      -3.098   6.908  -4.218  1.00  0.00     0.047 A
ATOM     24  C   UNL     1      -4.774   8.286  -2.464  1.00  0.00     0.004 A
ATOM     25  C   UNL     1      -2.641   8.059  -3.577  1.00  0.00     0.004 A
ATOM     26  C   UNL     1      -3.478   8.748  -2.699  1.00  0.00     0.000 A
ENDBRANCH  20  21
ENDBRANCH  17  20
ENDBRANCH   1  14
BRANCH   1  27
ATOM     27  C   UNL     1      -2.654   0.024  -4.076  1.00  0.00     0.113 C
ATOM     28  N   UNL     1      -2.852  -0.959  -4.660  1.00  0.00    -0.194 NA
ENDBRANCH   1  27
TORSDOF 8
ENDMDL
