MODEL 1
REMARK VINA RESULT:    -6.537      0.000      0.000
REMARK INTER + INTRA:          -8.277
REMARK INTER:                  -7.683
REMARK INTRA:                  -0.594
REMARK UNBOUND:                -0.594
REMARK SMILES Clc1ccc(C(c2ccc(Cl)cc2)C(Cl)(Cl)Cl)cc1
REMARK SMILES IDX 6 1 14 2 15 3 16 4 17 5 5 6 4 7 18 8 3 9 19 10 2 11 1 12
REMARK SMILES IDX 7 13 8 14 13 15 9 16 12 17 10 18 11 19
REMARK H PARENT
REMARK Flexibility Score: inf
ROOT
ATOM      1  C   UNL     1      -1.364   1.653  -1.493  1.00  0.00     0.101 C 
ENDROOT
BRANCH   1   2
ATOM      2  C   UNL     1      -1.719   0.675  -2.690  1.00  0.00     0.201 C 
ATOM      3  Cl  UNL     1      -1.094   1.204  -4.285  1.00  0.00    -0.083 Cl
ATOM      4  Cl  UNL     1      -3.522   0.565  -2.861  1.00  0.00    -0.083 Cl
ATOM      5  Cl  UNL     1      -1.146  -1.010  -2.388  1.00  0.00    -0.083 Cl
ENDBRANCH   1   2
BRANCH   1   6
ATOM      6  C   UNL     1      -1.891   3.042  -1.617  1.00  0.00    -0.036 A 
ATOM      7  C   UNL     1      -2.252   3.755  -0.474  1.00  0.00     0.006 A 
ATOM      8  C   UNL     1      -2.024   3.629  -2.876  1.00  0.00     0.006 A 
ATOM      9  C   UNL     1      -2.747   5.055  -0.590  1.00  0.00     0.021 A 
ATOM     10  C   UNL     1      -2.518   4.928  -2.992  1.00  0.00     0.021 A 
ATOM     11  C   UNL     1      -2.879   5.641  -1.849  1.00  0.00     0.041 A 
ATOM     12  Cl  UNL     1      -3.489   7.244  -1.992  1.00  0.00    -0.084 Cl
ENDBRANCH   1   6
BRANCH   1  13
ATOM     13  C   UNL     1       0.097   1.609  -0.979  1.00  0.00    -0.036 A 
ATOM     14  C   UNL     1       0.361   0.871   0.140  1.00  0.00     0.006 A 
ATOM     15  C   UNL     1       1.040   2.314  -1.674  1.00  0.00     0.006 A 
ATOM     16  C   UNL     1       1.676   0.834   0.603  1.00  0.00     0.021 A 
ATOM     17  C   UNL     1       2.356   2.277  -1.211  1.00  0.00     0.021 A 
ATOM     18  C   UNL     1       2.673   1.536  -0.073  1.00  0.00     0.041 A 
ATOM     19  Cl  UNL     1       4.296   1.491   0.499  1.00  0.00    -0.084 Cl
ENDBRANCH   1  13
TORSDOF 3
ENDMDL
MODEL 2
REMARK VINA RESULT:    -6.528      0.098      1.587
REMARK INTER + INTRA:          -8.266
REMARK INTER:                  -7.652
REMARK INTRA:                  -0.615
REMARK UNBOUND:                -0.594
REMARK SMILES Clc1ccc(C(c2ccc(Cl)cc2)C(Cl)(Cl)Cl)cc1
REMARK SMILES IDX 6 1 14 2 15 3 16 4 17 5 5 6 4 7 18 8 3 9 19 10 2 11 1 12
REMARK SMILES IDX 7 13 8 14 13 15 9 16 12 17 10 18 11 19
REMARK H PARENT
REMARK Flexibility Score: inf
ROOT
ATOM      1  C   UNL     1      -1.356   1.615  -1.468  1.00  0.00     0.101 C 
ENDROOT
BRANCH   1   2
ATOM      2  C   UNL     1      -1.707   0.638  -2.667  1.00  0.00     0.201 C 
ATOM      3  Cl  UNL     1      -3.462   0.473  -2.996  1.00  0.00    -0.083 Cl
ATOM      4  Cl  UNL     1      -1.102  -1.028  -2.280  1.00  0.00    -0.083 Cl
ATOM      5  Cl  UNL     1      -0.887   1.118  -4.201  1.00  0.00    -0.083 Cl
ENDBRANCH   1   2
BRANCH   1   6
ATOM      6  C   UNL     1      -1.907   2.997  -1.578  1.00  0.00    -0.036 A 
ATOM      7  C   UNL     1      -2.094   3.574  -2.834  1.00  0.00     0.006 A 
ATOM      8  C   UNL     1      -2.233   3.712  -0.426  1.00  0.00     0.006 A 
ATOM      9  C   UNL     1      -2.608   4.866  -2.938  1.00  0.00     0.021 A 
ATOM     10  C   UNL     1      -2.747   5.005  -0.529  1.00  0.00     0.021 A 
ATOM     11  C   UNL     1      -2.934   5.582  -1.785  1.00  0.00     0.041 A 
ATOM     12  Cl  UNL     1      -3.568   7.177  -1.913  1.00  0.00    -0.084 Cl
ENDBRANCH   1   6
BRANCH   1  13
ATOM     13  C   UNL     1       0.110   1.592  -0.968  1.00  0.00    -0.036 A 
ATOM     14  C   UNL     1       0.389   0.883   0.167  1.00  0.00     0.006 A 
ATOM     15  C   UNL     1       1.042   2.284  -1.690  1.00  0.00     0.006 A 
ATOM     16  C   UNL     1       1.709   0.864   0.616  1.00  0.00     0.021 A 
ATOM     17  C   UNL     1       2.362   2.266  -1.240  1.00  0.00     0.021 A 
ATOM     18  C   UNL     1       2.696   1.555  -0.087  1.00  0.00     0.041 A 
ATOM     19  Cl  UNL     1       4.325   1.533   0.469  1.00  0.00    -0.084 Cl
ENDBRANCH   1  13
TORSDOF 3
ENDMDL
MODEL 3
REMARK VINA RESULT:    -6.522      0.128      1.572
REMARK INTER + INTRA:          -8.259
REMARK INTER:                  -7.641
REMARK INTRA:                  -0.618
REMARK UNBOUND:                -0.594
REMARK SMILES Clc1ccc(C(c2ccc(Cl)cc2)C(Cl)(Cl)Cl)cc1
REMARK SMILES IDX 6 1 14 2 15 3 16 4 17 5 5 6 4 7 18 8 3 9 19 10 2 11 1 12
REMARK SMILES IDX 7 13 8 14 13 15 9 16 12 17 10 18 11 19
REMARK H PARENT
REMARK Flexibility Score: inf
ROOT
ATOM      1  C   UNL     1      -1.350   1.633  -1.557  1.00  0.00     0.101 C 
ENDROOT
BRANCH   1   2
ATOM      2  C   UNL     1      -1.670   0.684  -2.787  1.00  0.00     0.201 C 
ATOM      3  Cl  UNL     1      -3.410   0.588  -3.212  1.00  0.00    -0.083 Cl
ATOM      4  Cl  UNL     1      -1.150  -1.009  -2.389  1.00  0.00    -0.083 Cl
ATOM      5  Cl  UNL     1      -0.750   1.150  -4.267  1.00  0.00    -0.083 Cl
ENDBRANCH   1   2
BRANCH   1   6
ATOM      6  C   UNL     1      -1.888   3.021  -1.656  1.00  0.00    -0.036 A 
ATOM      7  C   UNL     1      -2.285   3.698  -0.504  1.00  0.00     0.006 A 
ATOM      8  C   UNL     1      -1.995   3.641  -2.902  1.00  0.00     0.006 A 
ATOM      9  C   UNL     1      -2.789   4.996  -0.597  1.00  0.00     0.021 A 
ATOM     10  C   UNL     1      -2.498   4.938  -2.995  1.00  0.00     0.021 A 
ATOM     11  C   UNL     1      -2.895   5.616  -1.842  1.00  0.00     0.041 A 
ATOM     12  Cl  UNL     1      -3.517   7.217  -1.957  1.00  0.00    -0.084 Cl
ENDBRANCH   1   6
BRANCH   1  13
ATOM     13  C   UNL     1       0.100   1.590  -1.014  1.00  0.00    -0.036 A 
ATOM     14  C   UNL     1       1.051   2.321  -1.668  1.00  0.00     0.006 A 
ATOM     15  C   UNL     1       0.346   0.821   0.089  1.00  0.00     0.006 A 
ATOM     16  C   UNL     1       2.357   2.280  -1.180  1.00  0.00     0.021 A 
ATOM     17  C   UNL     1       1.653   0.779   0.577  1.00  0.00     0.021 A 
ATOM     18  C   UNL     1       2.658   1.510  -0.057  1.00  0.00     0.041 A 
ATOM     19  Cl  UNL     1       4.269   1.458   0.546  1.00  0.00    -0.084 Cl
ENDBRANCH   1  13
TORSDOF 3
ENDMDL
MODEL 4
REMARK VINA RESULT:    -6.444      2.313      4.789
REMARK INTER + INTRA:          -8.167
REMARK INTER:                  -7.591
REMARK INTRA:                  -0.576
REMARK UNBOUND:                -0.594
REMARK SMILES Clc1ccc(C(c2ccc(Cl)cc2)C(Cl)(Cl)Cl)cc1
REMARK SMILES IDX 6 1 14 2 15 3 16 4 17 5 5 6 4 7 18 8 3 9 19 10 2 11 1 12
REMARK SMILES IDX 7 13 8 14 13 15 9 16 12 17 10 18 11 19
REMARK H PARENT
REMARK Flexibility Score: inf
ROOT
ATOM      1  C   UNL     1      -0.123   1.447  -1.714  1.00  0.00     0.101 C 
ENDROOT
BRANCH   1   2
ATOM      2  C   UNL     1       0.257   0.887  -0.280  1.00  0.00     0.201 C 
ATOM      3  Cl  UNL     1      -0.810   1.459   1.043  1.00  0.00    -0.083 Cl
ATOM      4  Cl  UNL     1       1.935   1.429   0.150  1.00  0.00    -0.083 Cl
ATOM      5  Cl  UNL     1       0.293  -0.917  -0.237  1.00  0.00    -0.083 Cl
ENDBRANCH   1   2
BRANCH   1   6
ATOM      6  C   UNL     1      -0.071   2.930  -1.863  1.00  0.00    -0.036 A 
ATOM      7  C   UNL     1       0.519   3.496  -2.993  1.00  0.00     0.006 A 
ATOM      8  C   UNL     1      -0.609   3.751  -0.872  1.00  0.00     0.006 A 
ATOM      9  C   UNL     1       0.570   4.883  -3.132  1.00  0.00     0.021 A 
ATOM     10  C   UNL     1      -0.559   5.137  -1.011  1.00  0.00     0.021 A 
ATOM     11  C   UNL     1       0.030   5.704  -2.141  1.00  0.00     0.041 A 
ATOM     12  Cl  UNL     1       0.093   7.415  -2.312  1.00  0.00    -0.084 Cl
ENDBRANCH   1   6
BRANCH   1  13
ATOM     13  C   UNL     1      -1.370   0.820  -2.388  1.00  0.00    -0.036 A 
ATOM     14  C   UNL     1      -2.599   1.304  -2.035  1.00  0.00     0.006 A 
ATOM     15  C   UNL     1      -1.170  -0.181  -3.297  1.00  0.00     0.006 A 
ATOM     16  C   UNL     1      -3.721   0.738  -2.641  1.00  0.00     0.021 A 
ATOM     17  C   UNL     1      -2.293  -0.747  -3.902  1.00  0.00     0.021 A 
ATOM     18  C   UNL     1      -3.568  -0.286  -3.575  1.00  0.00     0.041 A 
ATOM     19  Cl  UNL     1      -4.952  -0.985  -4.322  1.00  0.00    -0.084 Cl
ENDBRANCH   1  13
TORSDOF 3
ENDMDL
MODEL 5
REMARK VINA RESULT:    -6.084      1.167      5.540
REMARK INTER + INTRA:          -7.745
REMARK INTER:                  -7.095
REMARK INTRA:                  -0.650
REMARK UNBOUND:                -0.594
REMARK SMILES Clc1ccc(C(c2ccc(Cl)cc2)C(Cl)(Cl)Cl)cc1
REMARK SMILES IDX 6 1 14 2 15 3 16 4 17 5 5 6 4 7 18 8 3 9 19 10 2 11 1 12
REMARK SMILES IDX 7 13 8 14 13 15 9 16 12 17 10 18 11 19
REMARK H PARENT
REMARK Flexibility Score: inf
ROOT
ATOM      1  C   UNL     1      -1.503   2.669  -2.495  1.00  0.00     0.101 C 
ENDROOT
BRANCH   1   2
ATOM      2  C   UNL     1      -2.667   1.617  -2.727  1.00  0.00     0.201 C 
ATOM      3  Cl  UNL     1      -2.130  -0.094  -2.707  1.00  0.00    -0.083 Cl
ATOM      4  Cl  UNL     1      -3.412   1.897  -4.358  1.00  0.00    -0.083 Cl
ATOM      5  Cl  UNL     1      -4.006   1.804  -1.533  1.00  0.00    -0.083 Cl
ENDBRANCH   1   2
BRANCH   1   6
ATOM      6  C   UNL     1      -0.430   2.246  -1.550  1.00  0.00    -0.036 A 
ATOM      7  C   UNL     1       0.909   2.470  -1.871  1.00  0.00     0.006 A 
ATOM      8  C   UNL     1      -0.764   1.626  -0.346  1.00  0.00     0.006 A 
ATOM      9  C   UNL     1       1.914   2.073  -0.988  1.00  0.00     0.021 A 
ATOM     10  C   UNL     1       0.240   1.230   0.537  1.00  0.00     0.021 A 
ATOM     11  C   UNL     1       1.578   1.453   0.216  1.00  0.00     0.041 A 
ATOM     12  Cl  UNL     1       2.818   0.963   1.306  1.00  0.00    -0.084 Cl
ENDBRANCH   1   6
BRANCH   1  13
ATOM     13  C   UNL     1      -1.939   4.142  -2.287  1.00  0.00    -0.036 A 
ATOM     14  C   UNL     1      -2.147   4.911  -3.397  1.00  0.00     0.006 A 
ATOM     15  C   UNL     1      -2.089   4.589  -1.003  1.00  0.00     0.006 A 
ATOM     16  C   UNL     1      -2.537   6.236  -3.209  1.00  0.00     0.021 A 
ATOM     17  C   UNL     1      -2.479   5.915  -0.816  1.00  0.00     0.021 A 
ATOM     18  C   UNL     1      -2.704   6.738  -1.919  1.00  0.00     0.041 A 
ATOM     19  Cl  UNL     1      -3.185   8.375  -1.686  1.00  0.00    -0.084 Cl
ENDBRANCH   1  13
TORSDOF 3
ENDMDL
