MODEL 1
REMARK VINA RESULT:    -6.563      0.000      0.000
REMARK INTER + INTRA:         -12.439
REMARK INTER:                  -9.249
REMARK INTRA:                  -3.190
REMARK UNBOUND:                -3.190
REMARK SMILES CC1(C)[C@H](C=C(Cl)Cl)[C@H]1C(=O)OCc1cccc(Oc2ccccc2)c1
REMARK SMILES IDX 13 1 12 2 10 3 11 4 9 5 4 6 2 7 1 8 3 9 5 10 7 11 6 12 8 13
REMARK SMILES IDX 14 14 26 15 15 16 18 17 16 18 17 19 19 20 20 21 21 22 25 23
REMARK SMILES IDX 22 24 24 25 23 26
REMARK H PARENT
REMARK Flexibility Score: inf
ROOT
ATOM      1  C   UNL     1      -0.557   6.576  -3.354  1.00  0.00     0.268 C 
ENDROOT
BRANCH   1   2
ATOM      2  O   UNL     1      -0.399   5.216  -2.969  1.00  0.00    -0.461 OA
BRANCH   2   3
ATOM      3  C   UNL     1      -0.121   5.000  -1.651  1.00  0.00     0.310 C 
ATOM      4  O   UNL     1       0.521   5.733  -0.912  1.00  0.00    -0.252 OA
BRANCH   3   5
ATOM      5  C   UNL     1      -0.703   3.724  -1.165  1.00  0.00     0.113 C 
ATOM      6  C   UNL     1      -1.877   3.155  -1.898  1.00  0.00     0.035 C 
ATOM      7  C   UNL     1      -2.051   3.714  -0.516  1.00  0.00    -0.014 C 
ATOM      8  C   UNL     1      -2.328   2.746   0.585  1.00  0.00     0.012 C 
ATOM      9  C   UNL     1      -2.724   5.031  -0.327  1.00  0.00     0.012 C 
BRANCH   6  10
ATOM     10  C   UNL     1      -1.920   1.718  -2.123  1.00  0.00     0.011 C 
ATOM     11  Cl  UNL     1      -0.586   1.817  -4.462  1.00  0.00    -0.071 Cl
ATOM     12  C   UNL     1      -1.413   1.037  -3.162  1.00  0.00     0.103 C 
ATOM     13  Cl  UNL     1      -1.574  -0.683  -3.242  1.00  0.00    -0.071 Cl
ENDBRANCH   6  10
ENDBRANCH   3   5
ENDBRANCH   2   3
ENDBRANCH   1   2
BRANCH   1  14
ATOM     14  C   UNL     1      -1.988   6.970  -3.210  1.00  0.00    -0.007 A 
ATOM     15  C   UNL     1      -2.991   6.156  -3.737  1.00  0.00     0.054 A 
ATOM     16  C   UNL     1      -2.323   8.150  -2.546  1.00  0.00     0.007 A 
ATOM     17  C   UNL     1      -4.330   6.525  -3.601  1.00  0.00     0.127 A 
ATOM     18  C   UNL     1      -3.661   8.519  -2.412  1.00  0.00     0.004 A 
ATOM     19  C   UNL     1      -4.664   7.705  -2.939  1.00  0.00     0.047 A 
BRANCH  17  20
ATOM     20  O   UNL     1      -5.309   5.731  -4.115  1.00  0.00    -0.457 OA
BRANCH  20  21
ATOM     21  C   UNL     1      -5.324   4.400  -3.739  1.00  0.00     0.127 A 
ATOM     22  C   UNL     1      -5.689   4.069  -2.445  1.00  0.00     0.047 A 
ATOM     23  C   UNL     1      -4.972   3.433  -4.663  1.00  0.00     0.047 A 
ATOM     24  C   UNL     1      -5.704   2.728  -2.066  1.00  0.00     0.004 A 
ATOM     25  C   UNL     1      -4.988   2.091  -4.282  1.00  0.00     0.004 A 
ATOM     26  C   UNL     1      -5.354   1.739  -2.984  1.00  0.00     0.000 A 
ENDBRANCH  20  21
ENDBRANCH  17  20
ENDBRANCH   1  14
TORSDOF 7
ENDMDL
MODEL 2
REMARK VINA RESULT:    -6.328      2.449      4.989
REMARK INTER + INTRA:         -12.108
REMARK INTER:                  -9.973
REMARK INTRA:                  -2.135
REMARK UNBOUND:                -3.190
REMARK SMILES CC1(C)[C@H](C=C(Cl)Cl)[C@H]1C(=O)OCc1cccc(Oc2ccccc2)c1
REMARK SMILES IDX 13 1 12 2 10 3 11 4 9 5 4 6 2 7 1 8 3 9 5 10 7 11 6 12 8 13
REMARK SMILES IDX 14 14 26 15 15 16 18 17 16 18 17 19 19 20 20 21 21 22 25 23
REMARK SMILES IDX 22 24 24 25 23 26
REMARK H PARENT
REMARK Flexibility Score: inf
ROOT
ATOM      1  C   UNL     1       1.146   3.660  -2.073  1.00  0.00     0.268 C 
ENDROOT
BRANCH   1   2
ATOM      2  O   UNL     1       0.200   4.670  -2.398  1.00  0.00    -0.461 OA
BRANCH   2   3
ATOM      3  C   UNL     1       0.021   5.642  -1.456  1.00  0.00     0.310 C 
ATOM      4  O   UNL     1       0.875   6.102  -0.712  1.00  0.00    -0.252 OA
BRANCH   3   5
ATOM      5  C   UNL     1      -1.385   6.117  -1.413  1.00  0.00     0.113 C 
ATOM      6  C   UNL     1      -2.251   5.882  -2.610  1.00  0.00     0.035 C 
ATOM      7  C   UNL     1      -1.811   7.274  -2.261  1.00  0.00    -0.014 C 
ATOM      8  C   UNL     1      -2.851   8.214  -1.753  1.00  0.00     0.012 C 
ATOM      9  C   UNL     1      -0.756   7.944  -3.076  1.00  0.00     0.012 C 
BRANCH   6  10
ATOM     10  C   UNL     1      -3.630   5.468  -2.393  1.00  0.00     0.011 C 
ATOM     11  Cl  UNL     1      -2.984   3.061  -1.369  1.00  0.00    -0.071 Cl
ATOM     12  C   UNL     1      -4.065   4.308  -1.879  1.00  0.00     0.103 C 
ATOM     13  Cl  UNL     1      -5.759   4.009  -1.706  1.00  0.00    -0.071 Cl
ENDBRANCH   6  10
ENDBRANCH   3   5
ENDBRANCH   2   3
ENDBRANCH   1   2
BRANCH   1  14
ATOM     14  C   UNL     1       0.464   2.334  -2.038  1.00  0.00    -0.007 A 
ATOM     15  C   UNL     1      -0.146   1.833  -3.189  1.00  0.00     0.054 A 
ATOM     16  C   UNL     1       0.436   1.594  -0.856  1.00  0.00     0.007 A 
ATOM     17  C   UNL     1      -0.783   0.593  -3.157  1.00  0.00     0.127 A 
ATOM     18  C   UNL     1      -0.202   0.355  -0.824  1.00  0.00     0.004 A 
ATOM     19  C   UNL     1      -0.811  -0.146  -1.975  1.00  0.00     0.047 A 
BRANCH  17  20
ATOM     20  O   UNL     1      -1.378   0.104  -4.279  1.00  0.00    -0.457 OA
BRANCH  20  21
ATOM     21  C   UNL     1      -2.755   0.207  -4.376  1.00  0.00     0.127 A 
ATOM     22  C   UNL     1      -3.521  -0.945  -4.327  1.00  0.00     0.047 A 
ATOM     23  C   UNL     1      -3.330   1.455  -4.519  1.00  0.00     0.047 A 
ATOM     24  C   UNL     1      -4.908  -0.843  -4.424  1.00  0.00     0.004 A 
ATOM     25  C   UNL     1      -4.718   1.557  -4.615  1.00  0.00     0.004 A 
ATOM     26  C   UNL     1      -5.507   0.408  -4.567  1.00  0.00     0.000 A 
ENDBRANCH  20  21
ENDBRANCH  17  20
ENDBRANCH   1  14
TORSDOF 7
ENDMDL
MODEL 3
REMARK VINA RESULT:    -6.294      2.714      5.193
REMARK INTER + INTRA:         -12.060
REMARK INTER:                  -9.072
REMARK INTRA:                  -2.987
REMARK UNBOUND:                -3.190
REMARK SMILES CC1(C)[C@H](C=C(Cl)Cl)[C@H]1C(=O)OCc1cccc(Oc2ccccc2)c1
REMARK SMILES IDX 13 1 12 2 10 3 11 4 9 5 4 6 2 7 1 8 3 9 5 10 7 11 6 12 8 13
REMARK SMILES IDX 14 14 26 15 15 16 18 17 16 18 17 19 19 20 20 21 21 22 25 23
REMARK SMILES IDX 22 24 24 25 23 26
REMARK H PARENT
REMARK Flexibility Score: inf
ROOT
ATOM      1  C   UNL     1      -0.466   0.972  -1.028  1.00  0.00     0.268 C 
ENDROOT
BRANCH   1   2
ATOM      2  O   UNL     1      -0.459   2.386  -0.878  1.00  0.00    -0.461 OA
BRANCH   2   3
ATOM      3  C   UNL     1       0.669   3.023  -1.305  1.00  0.00     0.310 C 
ATOM      4  O   UNL     1       1.822   2.639  -1.160  1.00  0.00    -0.252 OA
BRANCH   3   5
ATOM      5  C   UNL     1       0.356   4.296  -2.002  1.00  0.00     0.113 C 
ATOM      6  C   UNL     1      -1.044   4.517  -2.479  1.00  0.00     0.035 C 
ATOM      7  C   UNL     1       0.062   4.293  -3.468  1.00  0.00    -0.014 C 
ATOM      8  C   UNL     1       0.481   5.456  -4.304  1.00  0.00     0.012 C 
ATOM      9  C   UNL     1       0.166   2.987  -4.181  1.00  0.00     0.012 C 
BRANCH   6  10
ATOM     10  C   UNL     1      -1.628   5.840  -2.312  1.00  0.00     0.011 C 
ATOM     11  Cl  UNL     1      -2.507   5.384   0.194  1.00  0.00    -0.071 Cl
ATOM     12  C   UNL     1      -2.269   6.323  -1.236  1.00  0.00     0.103 C 
ATOM     13  Cl  UNL     1      -2.896   7.934  -1.242  1.00  0.00    -0.071 Cl
ENDBRANCH   6  10
ENDBRANCH   3   5
ENDBRANCH   2   3
ENDBRANCH   1   2
BRANCH   1  14
ATOM     14  C   UNL     1      -1.493   0.584  -2.037  1.00  0.00    -0.007 A 
ATOM     15  C   UNL     1      -2.737   1.217  -2.045  1.00  0.00     0.054 A 
ATOM     16  C   UNL     1      -1.210  -0.409  -2.975  1.00  0.00     0.007 A 
ATOM     17  C   UNL     1      -3.696   0.855  -2.990  1.00  0.00     0.127 A 
ATOM     18  C   UNL     1      -2.170  -0.771  -3.919  1.00  0.00     0.004 A 
ATOM     19  C   UNL     1      -3.413  -0.139  -3.926  1.00  0.00     0.047 A 
BRANCH  17  20
ATOM     20  O   UNL     1      -4.910   1.471  -2.998  1.00  0.00    -0.457 OA
BRANCH  20  21
ATOM     21  C   UNL     1      -4.938   2.836  -3.226  1.00  0.00     0.127 A 
ATOM     22  C   UNL     1      -5.479   3.669  -2.262  1.00  0.00     0.047 A 
ATOM     23  C   UNL     1      -4.425   3.333  -4.410  1.00  0.00     0.047 A 
ATOM     24  C   UNL     1      -5.507   5.044  -2.492  1.00  0.00     0.004 A 
ATOM     25  C   UNL     1      -4.453   4.709  -4.639  1.00  0.00     0.004 A 
ATOM     26  C   UNL     1      -4.994   5.564  -3.679  1.00  0.00     0.000 A 
ENDBRANCH  20  21
ENDBRANCH  17  20
ENDBRANCH   1  14
TORSDOF 7
ENDMDL
MODEL 4
REMARK VINA RESULT:    -6.222      2.980      5.383
REMARK INTER + INTRA:         -11.958
REMARK INTER:                 -10.308
REMARK INTRA:                  -1.650
REMARK UNBOUND:                -3.190
REMARK SMILES CC1(C)[C@H](C=C(Cl)Cl)[C@H]1C(=O)OCc1cccc(Oc2ccccc2)c1
REMARK SMILES IDX 13 1 12 2 10 3 11 4 9 5 4 6 2 7 1 8 3 9 5 10 7 11 6 12 8 13
REMARK SMILES IDX 14 14 26 15 15 16 18 17 16 18 17 19 19 20 20 21 21 22 25 23
REMARK SMILES IDX 22 24 24 25 23 26
REMARK H PARENT
REMARK Flexibility Score: inf
ROOT
ATOM      1  C   UNL     1       1.347   3.563  -2.074  1.00  0.00     0.268 C 
ENDROOT
BRANCH   1   2
ATOM      2  O   UNL     1       0.550   4.581  -2.666  1.00  0.00    -0.461 OA
BRANCH   2   3
ATOM      3  C   UNL     1       0.020   5.497  -1.805  1.00  0.00     0.310 C 
ATOM      4  O   UNL     1       0.605   6.064  -0.893  1.00  0.00    -0.252 OA
BRANCH   3   5
ATOM      5  C   UNL     1      -1.414   5.759  -2.090  1.00  0.00     0.113 C 
ATOM      6  C   UNL     1      -2.209   6.526  -1.081  1.00  0.00     0.035 C 
ATOM      7  C   UNL     1      -2.475   5.065  -1.297  1.00  0.00    -0.014 C 
ATOM      8  C   UNL     1      -3.759   4.691  -1.957  1.00  0.00     0.012 C 
ATOM      9  C   UNL     1      -2.023   4.071  -0.281  1.00  0.00     0.012 C 
BRANCH   6  10
ATOM     10  C   UNL     1      -3.152   7.526  -1.562  1.00  0.00     0.011 C 
ATOM     11  Cl  UNL     1      -1.486   8.527  -3.428  1.00  0.00    -0.071 Cl
ATOM     12  C   UNL     1      -2.964   8.423  -2.542  1.00  0.00     0.103 C 
ATOM     13  Cl  UNL     1      -4.221   9.535  -2.962  1.00  0.00    -0.071 Cl
ENDBRANCH   6  10
ENDBRANCH   3   5
ENDBRANCH   2   3
ENDBRANCH   1   2
BRANCH   1  14
ATOM     14  C   UNL     1       0.583   2.283  -2.057  1.00  0.00    -0.007 A 
ATOM     15  C   UNL     1      -0.068   1.843  -3.209  1.00  0.00     0.054 A 
ATOM     16  C   UNL     1       0.521   1.524  -0.888  1.00  0.00     0.007 A 
ATOM     17  C   UNL     1      -0.782   0.645  -3.192  1.00  0.00     0.127 A 
ATOM     18  C   UNL     1      -0.193   0.326  -0.871  1.00  0.00     0.004 A 
ATOM     19  C   UNL     1      -0.844  -0.113  -2.024  1.00  0.00     0.047 A 
BRANCH  17  20
ATOM     20  O   UNL     1      -1.418   0.215  -4.317  1.00  0.00    -0.457 OA
BRANCH  20  21
ATOM     21  C   UNL     1      -2.801   0.242  -4.324  1.00  0.00     0.127 A 
ATOM     22  C   UNL     1      -3.497  -0.946  -4.473  1.00  0.00     0.047 A 
ATOM     23  C   UNL     1      -3.454   1.452  -4.183  1.00  0.00     0.047 A 
ATOM     24  C   UNL     1      -4.891  -0.920  -4.481  1.00  0.00     0.004 A 
ATOM     25  C   UNL     1      -4.849   1.477  -4.191  1.00  0.00     0.004 A 
ATOM     26  C   UNL     1      -5.567   0.291  -4.339  1.00  0.00     0.000 A 
ENDBRANCH  20  21
ENDBRANCH  17  20
ENDBRANCH   1  14
TORSDOF 7
ENDMDL
MODEL 5
REMARK VINA RESULT:    -6.206      2.300      4.499
REMARK INTER + INTRA:         -11.936
REMARK INTER:                  -9.779
REMARK INTRA:                  -2.157
REMARK UNBOUND:                -3.190
REMARK SMILES CC1(C)[C@H](C=C(Cl)Cl)[C@H]1C(=O)OCc1cccc(Oc2ccccc2)c1
REMARK SMILES IDX 13 1 12 2 10 3 11 4 9 5 4 6 2 7 1 8 3 9 5 10 7 11 6 12 8 13
REMARK SMILES IDX 14 14 26 15 15 16 18 17 16 18 17 19 19 20 20 21 21 22 25 23
REMARK SMILES IDX 22 24 24 25 23 26
REMARK H PARENT
REMARK Flexibility Score: inf
ROOT
ATOM      1  C   UNL     1      -4.273   1.751  -4.240  1.00  0.00     0.268 C 
ENDROOT
BRANCH   1   2
ATOM      2  O   UNL     1      -2.896   1.807  -3.889  1.00  0.00    -0.461 OA
BRANCH   2   3
ATOM      3  C   UNL     1      -2.586   1.382  -2.629  1.00  0.00     0.310 C 
ATOM      4  O   UNL     1      -3.100   0.448  -2.029  1.00  0.00    -0.252 OA
BRANCH   3   5
ATOM      5  C   UNL     1      -1.508   2.199  -2.019  1.00  0.00     0.113 C 
ATOM      6  C   UNL     1      -1.195   1.994  -0.571  1.00  0.00     0.035 C 
ATOM      7  C   UNL     1      -1.847   3.266  -1.027  1.00  0.00    -0.014 C 
ATOM      8  C   UNL     1      -1.027   4.512  -0.979  1.00  0.00     0.012 C 
ATOM      9  C   UNL     1      -3.293   3.500  -0.748  1.00  0.00     0.012 C 
BRANCH   6  10
ATOM     10  C   UNL     1       0.202   1.986  -0.162  1.00  0.00     0.011 C 
ATOM     11  Cl  UNL     1       0.390  -0.699  -0.048  1.00  0.00    -0.071 Cl
ATOM     12  C   UNL     1       0.977   0.919   0.089  1.00  0.00     0.103 C 
ATOM     13  Cl  UNL     1       2.624   1.128   0.569  1.00  0.00    -0.071 Cl
ENDBRANCH   6  10
ENDBRANCH   3   5
ENDBRANCH   2   3
ENDBRANCH   1   2
BRANCH   1  14
ATOM     14  C   UNL     1      -4.971   2.955  -3.706  1.00  0.00    -0.007 A 
ATOM     15  C   UNL     1      -4.549   4.230  -4.082  1.00  0.00     0.054 A 
ATOM     16  C   UNL     1      -6.048   2.807  -2.831  1.00  0.00     0.007 A 
ATOM     17  C   UNL     1      -5.203   5.356  -3.582  1.00  0.00     0.127 A 
ATOM     18  C   UNL     1      -6.700   3.933  -2.331  1.00  0.00     0.004 A 
ATOM     19  C   UNL     1      -6.278   5.208  -2.708  1.00  0.00     0.047 A 
BRANCH  17  20
ATOM     20  O   UNL     1      -4.790   6.601  -3.949  1.00  0.00    -0.457 OA
BRANCH  20  21
ATOM     21  C   UNL     1      -3.602   7.070  -3.416  1.00  0.00     0.127 A 
ATOM     22  C   UNL     1      -3.592   7.558  -2.120  1.00  0.00     0.047 A 
ATOM     23  C   UNL     1      -2.457   7.039  -4.189  1.00  0.00     0.047 A 
ATOM     24  C   UNL     1      -2.395   8.030  -1.583  1.00  0.00     0.004 A 
ATOM     25  C   UNL     1      -1.259   7.511  -3.650  1.00  0.00     0.004 A 
ATOM     26  C   UNL     1      -1.229   8.006  -2.347  1.00  0.00     0.000 A 
ENDBRANCH  20  21
ENDBRANCH  17  20
ENDBRANCH   1  14
TORSDOF 7
ENDMDL
