MODEL 1
REMARK VINA RESULT:    -6.578      0.000      0.000
REMARK INTER + INTRA:         -12.466
REMARK INTER:                  -9.270
REMARK INTRA:                  -3.195
REMARK UNBOUND:                -3.195
REMARK SMILES CC1(C)[C@H](C=C(Cl)Cl)[C@H]1C(=O)OCc1cccc(Oc2ccccc2)c1
REMARK SMILES IDX 13 1 12 2 10 3 11 4 9 5 4 6 2 7 1 8 3 9 5 10 7 11 6 12 8 13
REMARK SMILES IDX 14 14 26 15 15 16 18 17 16 18 17 19 19 20 20 21 21 22 25 23
REMARK SMILES IDX 22 24 24 25 23 26
REMARK H PARENT
REMARK Flexibility Score: inf
ROOT
ATOM      1  C   UNL     1      -0.431   6.887  -3.177  1.00  0.00     0.268 C 
ENDROOT
BRANCH   1   2
ATOM      2  O   UNL     1      -0.254   5.493  -2.958  1.00  0.00    -0.461 OA
BRANCH   2   3
ATOM      3  C   UNL     1       0.074   5.128  -1.685  1.00  0.00     0.310 C 
ATOM      4  O   UNL     1       0.772   5.758  -0.903  1.00  0.00    -0.252 OA
BRANCH   3   5
ATOM      5  C   UNL     1      -0.529   3.823  -1.311  1.00  0.00     0.113 C 
ATOM      6  C   UNL     1      -1.732   3.355  -2.067  1.00  0.00     0.035 C 
ATOM      7  C   UNL     1      -1.862   3.780  -0.634  1.00  0.00    -0.014 C 
ATOM      8  C   UNL     1      -2.139   2.717   0.375  1.00  0.00     0.012 C 
ATOM      9  C   UNL     1      -2.499   5.088  -0.303  1.00  0.00     0.012 C 
BRANCH   6  10
ATOM     10  C   UNL     1      -1.813   1.947  -2.429  1.00  0.00     0.011 C 
ATOM     11  Cl  UNL     1      -0.134   2.155  -4.525  1.00  0.00    -0.071 Cl
ATOM     12  C   UNL     1      -1.189   1.324  -3.440  1.00  0.00     0.103 C 
ATOM     13  Cl  UNL     1      -1.425  -0.369  -3.703  1.00  0.00    -0.071 Cl
ENDBRANCH   6  10
ENDBRANCH   3   5
ENDBRANCH   2   3
ENDBRANCH   1   2
BRANCH   1  14
ATOM     14  C   UNL     1      -1.876   7.231  -3.044  1.00  0.00    -0.007 A 
ATOM     15  C   UNL     1      -2.842   6.429  -3.651  1.00  0.00     0.054 A 
ATOM     16  C   UNL     1      -2.261   8.354  -2.312  1.00  0.00     0.007 A 
ATOM     17  C   UNL     1      -4.194   6.751  -3.526  1.00  0.00     0.127 A 
ATOM     18  C   UNL     1      -3.612   8.676  -2.188  1.00  0.00     0.004 A 
ATOM     19  C   UNL     1      -4.578   7.874  -2.795  1.00  0.00     0.047 A 
BRANCH  17  20
ATOM     20  O   UNL     1      -5.137   5.968  -4.118  1.00  0.00    -0.457 OA
BRANCH  20  21
ATOM     21  C   UNL     1      -5.213   4.643  -3.726  1.00  0.00     0.127 A 
ATOM     22  C   UNL     1      -4.984   3.650  -4.663  1.00  0.00     0.047 A 
ATOM     23  C   UNL     1      -5.516   4.344  -2.411  1.00  0.00     0.047 A 
ATOM     24  C   UNL     1      -5.060   2.315  -4.269  1.00  0.00     0.004 A 
ATOM     25  C   UNL     1      -5.592   3.008  -2.017  1.00  0.00     0.004 A 
ATOM     26  C   UNL     1      -5.363   1.993  -2.946  1.00  0.00     0.000 A 
ENDBRANCH  20  21
ENDBRANCH  17  20
ENDBRANCH   1  14
TORSDOF 7
ENDMDL
MODEL 2
REMARK VINA RESULT:    -6.511      3.363      5.385
REMARK INTER + INTRA:         -12.371
REMARK INTER:                 -10.215
REMARK INTRA:                  -2.156
REMARK UNBOUND:                -3.195
REMARK SMILES CC1(C)[C@H](C=C(Cl)Cl)[C@H]1C(=O)OCc1cccc(Oc2ccccc2)c1
REMARK SMILES IDX 13 1 12 2 10 3 11 4 9 5 4 6 2 7 1 8 3 9 5 10 7 11 6 12 8 13
REMARK SMILES IDX 14 14 26 15 15 16 18 17 16 18 17 19 19 20 20 21 21 22 25 23
REMARK SMILES IDX 22 24 24 25 23 26
REMARK H PARENT
REMARK Flexibility Score: inf
ROOT
ATOM      1  C   UNL     1      -2.834   3.764   0.136  1.00  0.00     0.268 C 
ENDROOT
BRANCH   1   2
ATOM      2  O   UNL     1      -2.428   5.108  -0.093  1.00  0.00    -0.461 OA
BRANCH   2   3
ATOM      3  C   UNL     1      -1.264   5.266  -0.787  1.00  0.00     0.310 C 
ATOM      4  O   UNL     1      -0.252   4.588  -0.678  1.00  0.00    -0.252 OA
BRANCH   3   5
ATOM      5  C   UNL     1      -1.339   6.401  -1.742  1.00  0.00     0.113 C 
ATOM      6  C   UNL     1      -2.659   6.708  -2.376  1.00  0.00     0.035 C 
ATOM      7  C   UNL     1      -1.542   6.140  -3.201  1.00  0.00    -0.014 C 
ATOM      8  C   UNL     1      -0.903   7.041  -4.204  1.00  0.00     0.012 C 
ATOM      9  C   UNL     1      -1.592   4.714  -3.636  1.00  0.00     0.012 C 
BRANCH   6  10
ATOM     10  C   UNL     1      -3.046   8.104  -2.520  1.00  0.00     0.011 C 
ATOM     11  Cl  UNL     1      -5.676   7.582  -2.790  1.00  0.00    -0.071 Cl
ATOM     12  C   UNL     1      -4.282   8.597  -2.699  1.00  0.00     0.103 C 
ATOM     13  Cl  UNL     1      -4.529  10.301  -2.852  1.00  0.00    -0.071 Cl
ENDBRANCH   6  10
ENDBRANCH   3   5
ENDBRANCH   2   3
ENDBRANCH   1   2
BRANCH   1  14
ATOM     14  C   UNL     1      -3.780   3.341  -0.935  1.00  0.00    -0.007 A 
ATOM     15  C   UNL     1      -4.891   4.130  -1.236  1.00  0.00     0.054 A 
ATOM     16  C   UNL     1      -3.554   2.158  -1.638  1.00  0.00     0.007 A 
ATOM     17  C   UNL     1      -5.776   3.734  -2.239  1.00  0.00     0.127 A 
ATOM     18  C   UNL     1      -4.439   1.762  -2.641  1.00  0.00     0.004 A 
ATOM     19  C   UNL     1      -5.550   2.551  -2.941  1.00  0.00     0.047 A 
BRANCH  17  20
ATOM     20  O   UNL     1      -6.860   4.503  -2.532  1.00  0.00    -0.457 OA
BRANCH  20  21
ATOM     21  C   UNL     1      -7.875   4.571  -1.593  1.00  0.00     0.127 A 
ATOM     22  C   UNL     1      -8.155   5.785  -0.990  1.00  0.00     0.047 A 
ATOM     23  C   UNL     1      -8.583   3.425  -1.281  1.00  0.00     0.047 A 
ATOM     24  C   UNL     1      -9.177   5.853  -0.044  1.00  0.00     0.004 A 
ATOM     25  C   UNL     1      -9.606   3.495  -0.335  1.00  0.00     0.004 A 
ATOM     26  C   UNL     1      -9.903   4.709   0.283  1.00  0.00     0.000 A 
ENDBRANCH  20  21
ENDBRANCH  17  20
ENDBRANCH   1  14
TORSDOF 7
ENDMDL
MODEL 3
REMARK VINA RESULT:    -6.267      2.712      5.206
REMARK INTER + INTRA:         -12.028
REMARK INTER:                  -9.111
REMARK INTRA:                  -2.916
REMARK UNBOUND:                -3.195
REMARK SMILES CC1(C)[C@H](C=C(Cl)Cl)[C@H]1C(=O)OCc1cccc(Oc2ccccc2)c1
REMARK SMILES IDX 13 1 12 2 10 3 11 4 9 5 4 6 2 7 1 8 3 9 5 10 7 11 6 12 8 13
REMARK SMILES IDX 14 14 26 15 15 16 18 17 16 18 17 19 19 20 20 21 21 22 25 23
REMARK SMILES IDX 22 24 24 25 23 26
REMARK H PARENT
REMARK Flexibility Score: inf
ROOT
ATOM      1  C   UNL     1      -0.452   0.987  -1.193  1.00  0.00     0.268 C 
ENDROOT
BRANCH   1   2
ATOM      2  O   UNL     1      -0.459   2.395  -0.990  1.00  0.00    -0.461 OA
BRANCH   2   3
ATOM      3  C   UNL     1       0.672   3.056  -1.370  1.00  0.00     0.310 C 
ATOM      4  O   UNL     1       1.825   2.690  -1.190  1.00  0.00    -0.252 OA
BRANCH   3   5
ATOM      5  C   UNL     1       0.361   4.332  -2.062  1.00  0.00     0.113 C 
ATOM      6  C   UNL     1      -1.035   4.551  -2.553  1.00  0.00     0.035 C 
ATOM      7  C   UNL     1       0.082   4.338  -3.532  1.00  0.00    -0.014 C 
ATOM      8  C   UNL     1       0.505   5.509  -4.355  1.00  0.00     0.012 C 
ATOM      9  C   UNL     1       0.200   3.038  -4.252  1.00  0.00     0.012 C 
BRANCH   6  10
ATOM     10  C   UNL     1      -1.627   5.870  -2.384  1.00  0.00     0.011 C 
ATOM     11  Cl  UNL     1      -2.502   5.405   0.121  1.00  0.00    -0.071 Cl
ATOM     12  C   UNL     1      -2.270   6.347  -1.307  1.00  0.00     0.103 C 
ATOM     13  Cl  UNL     1      -2.906   7.955  -1.310  1.00  0.00    -0.071 Cl
ENDBRANCH   6  10
ENDBRANCH   3   5
ENDBRANCH   2   3
ENDBRANCH   1   2
BRANCH   1  14
ATOM     14  C   UNL     1      -1.561   0.613  -2.116  1.00  0.00    -0.007 A 
ATOM     15  C   UNL     1      -2.783   1.283  -2.046  1.00  0.00     0.054 A 
ATOM     16  C   UNL     1      -1.377  -0.407  -3.050  1.00  0.00     0.007 A 
ATOM     17  C   UNL     1      -3.820   0.932  -2.910  1.00  0.00     0.127 A 
ATOM     18  C   UNL     1      -2.414  -0.757  -3.913  1.00  0.00     0.004 A 
ATOM     19  C   UNL     1      -3.636  -0.087  -3.843  1.00  0.00     0.047 A 
BRANCH  17  20
ATOM     20  O   UNL     1      -5.013   1.585  -2.842  1.00  0.00    -0.457 OA
BRANCH  20  21
ATOM     21  C   UNL     1      -5.025   2.936  -3.144  1.00  0.00     0.127 A 
ATOM     22  C   UNL     1      -4.502   3.360  -4.354  1.00  0.00     0.047 A 
ATOM     23  C   UNL     1      -5.560   3.826  -2.232  1.00  0.00     0.047 A 
ATOM     24  C   UNL     1      -4.515   4.720  -4.659  1.00  0.00     0.004 A 
ATOM     25  C   UNL     1      -5.573   5.188  -2.538  1.00  0.00     0.004 A 
ATOM     26  C   UNL     1      -5.051   5.634  -3.752  1.00  0.00     0.000 A 
ENDBRANCH  20  21
ENDBRANCH  17  20
ENDBRANCH   1  14
TORSDOF 7
ENDMDL
MODEL 4
REMARK VINA RESULT:    -6.255      2.319      4.619
REMARK INTER + INTRA:         -12.010
REMARK INTER:                  -9.779
REMARK INTRA:                  -2.231
REMARK UNBOUND:                -3.195
REMARK SMILES CC1(C)[C@H](C=C(Cl)Cl)[C@H]1C(=O)OCc1cccc(Oc2ccccc2)c1
REMARK SMILES IDX 13 1 12 2 10 3 11 4 9 5 4 6 2 7 1 8 3 9 5 10 7 11 6 12 8 13
REMARK SMILES IDX 14 14 26 15 15 16 18 17 16 18 17 19 19 20 20 21 21 22 25 23
REMARK SMILES IDX 22 24 24 25 23 26
REMARK H PARENT
REMARK Flexibility Score: inf
ROOT
ATOM      1  C   UNL     1      -4.440   1.922  -4.199  1.00  0.00     0.268 C 
ENDROOT
BRANCH   1   2
ATOM      2  O   UNL     1      -3.060   1.935  -3.856  1.00  0.00    -0.461 OA
BRANCH   2   3
ATOM      3  C   UNL     1      -2.759   1.533  -2.587  1.00  0.00     0.310 C 
ATOM      4  O   UNL     1      -3.312   0.644  -1.954  1.00  0.00    -0.252 OA
BRANCH   3   5
ATOM      5  C   UNL     1      -1.635   2.314  -2.012  1.00  0.00     0.113 C 
ATOM      6  C   UNL     1      -1.302   2.117  -0.566  1.00  0.00     0.035 C 
ATOM      7  C   UNL     1      -1.910   3.409  -1.030  1.00  0.00    -0.014 C 
ATOM      8  C   UNL     1      -1.039   4.620  -1.018  1.00  0.00     0.012 C 
ATOM      9  C   UNL     1      -3.339   3.707  -0.726  1.00  0.00     0.012 C 
BRANCH   6  10
ATOM     10  C   UNL     1       0.101   2.058  -0.184  1.00  0.00     0.011 C 
ATOM     11  Cl  UNL     1       0.229  -0.633  -0.215  1.00  0.00    -0.071 Cl
ATOM     12  C   UNL     1       0.855   0.962  -0.005  1.00  0.00     0.103 C 
ATOM     13  Cl  UNL     1       2.516   1.109   0.455  1.00  0.00    -0.071 Cl
ENDBRANCH   6  10
ENDBRANCH   3   5
ENDBRANCH   2   3
ENDBRANCH   1   2
BRANCH   1  14
ATOM     14  C   UNL     1      -5.095   3.152  -3.669  1.00  0.00    -0.007 A 
ATOM     15  C   UNL     1      -4.622   4.410  -4.042  1.00  0.00     0.054 A 
ATOM     16  C   UNL     1      -6.181   3.044  -2.800  1.00  0.00     0.007 A 
ATOM     17  C   UNL     1      -5.236   5.560  -3.546  1.00  0.00     0.127 A 
ATOM     18  C   UNL     1      -6.794   4.195  -2.304  1.00  0.00     0.004 A 
ATOM     19  C   UNL     1      -6.321   5.453  -2.678  1.00  0.00     0.047 A 
BRANCH  17  20
ATOM     20  O   UNL     1      -4.774   6.788  -3.911  1.00  0.00    -0.457 OA
BRANCH  20  21
ATOM     21  C   UNL     1      -3.570   7.210  -3.373  1.00  0.00     0.127 A 
ATOM     22  C   UNL     1      -3.535   7.646  -2.060  1.00  0.00     0.047 A 
ATOM     23  C   UNL     1      -2.434   7.184  -4.161  1.00  0.00     0.047 A 
ATOM     24  C   UNL     1      -2.323   8.071  -1.519  1.00  0.00     0.004 A 
ATOM     25  C   UNL     1      -1.221   7.609  -3.618  1.00  0.00     0.004 A 
ATOM     26  C   UNL     1      -1.166   8.052  -2.296  1.00  0.00     0.000 A 
ENDBRANCH  20  21
ENDBRANCH  17  20
ENDBRANCH   1  14
TORSDOF 7
ENDMDL
MODEL 5
REMARK VINA RESULT:    -6.157     13.930     17.430
REMARK INTER + INTRA:         -11.872
REMARK INTER:                 -10.785
REMARK INTRA:                  -1.087
REMARK UNBOUND:                -3.195
REMARK SMILES CC1(C)[C@H](C=C(Cl)Cl)[C@H]1C(=O)OCc1cccc(Oc2ccccc2)c1
REMARK SMILES IDX 13 1 12 2 10 3 11 4 9 5 4 6 2 7 1 8 3 9 5 10 7 11 6 12 8 13
REMARK SMILES IDX 14 14 26 15 15 16 18 17 16 18 17 19 19 20 20 21 21 22 25 23
REMARK SMILES IDX 22 24 24 25 23 26
REMARK H PARENT
REMARK Flexibility Score: inf
ROOT
ATOM      1  C   UNL     1       3.233  -4.693  10.367  1.00  0.00     0.268 C 
ENDROOT
BRANCH   1   2
ATOM      2  O   UNL     1       2.514  -5.827   9.900  1.00  0.00    -0.461 OA
BRANCH   2   3
ATOM      3  C   UNL     1       1.437  -5.561   9.105  1.00  0.00     0.310 C 
ATOM      4  O   UNL     1       0.563  -6.350   8.774  1.00  0.00    -0.252 OA
BRANCH   3   5
ATOM      5  C   UNL     1       1.418  -4.147   8.654  1.00  0.00     0.113 C 
ATOM      6  C   UNL     1       0.189  -3.637   7.970  1.00  0.00     0.035 C 
ATOM      7  C   UNL     1       1.460  -3.826   7.194  1.00  0.00    -0.014 C 
ATOM      8  C   UNL     1       2.171  -2.598   6.731  1.00  0.00     0.012 C 
ATOM      9  C   UNL     1       1.588  -4.973   6.249  1.00  0.00     0.012 C 
BRANCH   6  10
ATOM     10  C   UNL     1      -0.280  -2.299   8.302  1.00  0.00     0.011 C 
ATOM     11  Cl  UNL     1      -2.681  -3.120   9.207  1.00  0.00    -0.071 Cl
ATOM     12  C   UNL     1      -1.465  -1.954   8.827  1.00  0.00     0.103 C 
ATOM     13  Cl  UNL     1      -1.831  -0.294   9.146  1.00  0.00    -0.071 Cl
ENDBRANCH   6  10
ENDBRANCH   3   5
ENDBRANCH   2   3
ENDBRANCH   1   2
BRANCH   1  14
ATOM     14  C   UNL     1       4.692  -4.900  10.135  1.00  0.00    -0.007 A 
ATOM     15  C   UNL     1       5.147  -6.099   9.587  1.00  0.00     0.054 A 
ATOM     16  C   UNL     1       5.600  -3.894  10.464  1.00  0.00     0.007 A 
ATOM     17  C   UNL     1       6.511  -6.292   9.369  1.00  0.00     0.127 A 
ATOM     18  C   UNL     1       6.964  -4.087  10.247  1.00  0.00     0.004 A 
ATOM     19  C   UNL     1       7.419  -5.287   9.699  1.00  0.00     0.047 A 
BRANCH  17  20
ATOM     20  O   UNL     1       6.956  -7.462   8.835  1.00  0.00    -0.457 OA
BRANCH  20  21
ATOM     21  C   UNL     1       7.718  -7.395   7.681  1.00  0.00     0.127 A 
ATOM     22  C   UNL     1       7.197  -6.761   6.567  1.00  0.00     0.047 A 
ATOM     23  C   UNL     1       8.978  -7.964   7.670  1.00  0.00     0.047 A 
ATOM     24  C   UNL     1       7.964  -6.693   5.404  1.00  0.00     0.004 A 
ATOM     25  C   UNL     1       9.745  -7.895   6.507  1.00  0.00     0.004 A 
ATOM     26  C   UNL     1       9.237  -7.259   5.374  1.00  0.00     0.000 A 
ENDBRANCH  20  21
ENDBRANCH  17  20
ENDBRANCH   1  14
TORSDOF 7
ENDMDL
