MODEL 1
REMARK VINA RESULT:    -6.536      0.000      0.000
REMARK INTER + INTRA:          -8.275
REMARK INTER:                  -7.682
REMARK INTRA:                  -0.593
REMARK UNBOUND:                -0.593
REMARK SMILES Clc1ccc(C(c2ccc(Cl)cc2)C(Cl)(Cl)Cl)cc1
REMARK SMILES IDX 6 1 14 2 15 3 16 4 17 5 5 6 4 7 18 8 3 9 19 10 2 11 1 12
REMARK SMILES IDX 7 13 8 14 13 15 9 16 12 17 10 18 11 19
REMARK H PARENT
REMARK Flexibility Score: inf
ROOT
ATOM      1  C   UNL     1      -1.405   1.646  -1.465  1.00  0.00     0.101 C 
ENDROOT
BRANCH   1   2
ATOM      2  C   UNL     1      -1.754   0.674  -2.668  1.00  0.00     0.201 C 
ATOM      3  Cl  UNL     1      -3.511   0.467  -2.963  1.00  0.00    -0.083 Cl
ATOM      4  Cl  UNL     1      -1.100  -0.980  -2.313  1.00  0.00    -0.083 Cl
ATOM      5  Cl  UNL     1      -0.979   1.193  -4.213  1.00  0.00    -0.083 Cl
ENDBRANCH   1   2
BRANCH   1   6
ATOM      6  C   UNL     1      -1.947   3.031  -1.575  1.00  0.00    -0.036 A 
ATOM      7  C   UNL     1      -2.231   3.762  -0.422  1.00  0.00     0.006 A 
ATOM      8  C   UNL     1      -2.172   3.595  -2.831  1.00  0.00     0.006 A 
ATOM      9  C   UNL     1      -2.739   5.057  -0.524  1.00  0.00     0.021 A 
ATOM     10  C   UNL     1      -2.680   4.890  -2.934  1.00  0.00     0.021 A 
ATOM     11  C   UNL     1      -2.963   5.621  -1.781  1.00  0.00     0.041 A 
ATOM     12  Cl  UNL     1      -3.591   7.219  -1.908  1.00  0.00    -0.084 Cl
ENDBRANCH   1   6
BRANCH   1  13
ATOM     13  C   UNL     1       0.059   1.614  -0.958  1.00  0.00    -0.036 A 
ATOM     14  C   UNL     1       0.334   0.877   0.160  1.00  0.00     0.006 A 
ATOM     15  C   UNL     1       0.993   2.327  -1.657  1.00  0.00     0.006 A 
ATOM     16  C   UNL     1       1.651   0.850   0.616  1.00  0.00     0.021 A 
ATOM     17  C   UNL     1       2.311   2.300  -1.199  1.00  0.00     0.021 A 
ATOM     18  C   UNL     1       2.640   1.561  -0.064  1.00  0.00     0.041 A 
ATOM     19  Cl  UNL     1       4.266   1.528   0.500  1.00  0.00    -0.084 Cl
ENDBRANCH   1  13
TORSDOF 3
ENDMDL
MODEL 2
REMARK VINA RESULT:    -6.527      0.095      1.598
REMARK INTER + INTRA:          -8.264
REMARK INTER:                  -7.661
REMARK INTRA:                  -0.603
REMARK UNBOUND:                -0.593
REMARK SMILES Clc1ccc(C(c2ccc(Cl)cc2)C(Cl)(Cl)Cl)cc1
REMARK SMILES IDX 6 1 14 2 15 3 16 4 17 5 5 6 4 7 18 8 3 9 19 10 2 11 1 12
REMARK SMILES IDX 7 13 8 14 13 15 9 16 12 17 10 18 11 19
REMARK H PARENT
REMARK Flexibility Score: inf
ROOT
ATOM      1  C   UNL     1      -1.355   1.630  -1.495  1.00  0.00     0.101 C 
ENDROOT
BRANCH   1   2
ATOM      2  C   UNL     1      -1.707   0.649  -2.691  1.00  0.00     0.201 C 
ATOM      3  Cl  UNL     1      -1.061   1.163  -4.283  1.00  0.00    -0.083 Cl
ATOM      4  Cl  UNL     1      -3.509   0.555  -2.879  1.00  0.00    -0.083 Cl
ATOM      5  Cl  UNL     1      -1.154  -1.040  -2.375  1.00  0.00    -0.083 Cl
ENDBRANCH   1   2
BRANCH   1   6
ATOM      6  C   UNL     1      -1.893   3.015  -1.617  1.00  0.00    -0.036 A 
ATOM      7  C   UNL     1      -2.011   3.609  -2.873  1.00  0.00     0.006 A 
ATOM      8  C   UNL     1      -2.278   3.717  -0.474  1.00  0.00     0.006 A 
ATOM      9  C   UNL     1      -2.514   4.906  -2.987  1.00  0.00     0.021 A 
ATOM     10  C   UNL     1      -2.781   5.013  -0.588  1.00  0.00     0.021 A 
ATOM     11  C   UNL     1      -2.899   5.607  -1.844  1.00  0.00     0.041 A 
ATOM     12  Cl  UNL     1      -3.519   7.207  -1.984  1.00  0.00    -0.084 Cl
ENDBRANCH   1   6
BRANCH   1  13
ATOM     13  C   UNL     1       0.109   1.598  -0.988  1.00  0.00    -0.036 A 
ATOM     14  C   UNL     1       0.380   0.878   0.142  1.00  0.00     0.006 A 
ATOM     15  C   UNL     1       1.047   2.293  -1.699  1.00  0.00     0.006 A 
ATOM     16  C   UNL     1       1.697   0.851   0.598  1.00  0.00     0.021 A 
ATOM     17  C   UNL     1       2.365   2.267  -1.242  1.00  0.00     0.021 A 
ATOM     18  C   UNL     1       2.690   1.545  -0.093  1.00  0.00     0.041 A 
ATOM     19  Cl  UNL     1       4.316   1.513   0.471  1.00  0.00    -0.084 Cl
ENDBRANCH   1  13
TORSDOF 3
ENDMDL
MODEL 3
REMARK VINA RESULT:    -6.420      2.333      4.762
REMARK INTER + INTRA:          -8.138
REMARK INTER:                  -7.554
REMARK INTRA:                  -0.584
REMARK UNBOUND:                -0.593
REMARK SMILES Clc1ccc(C(c2ccc(Cl)cc2)C(Cl)(Cl)Cl)cc1
REMARK SMILES IDX 6 1 14 2 15 3 16 4 17 5 5 6 4 7 18 8 3 9 19 10 2 11 1 12
REMARK SMILES IDX 7 13 8 14 13 15 9 16 12 17 10 18 11 19
REMARK H PARENT
REMARK Flexibility Score: inf
ROOT
ATOM      1  C   UNL     1      -0.215   1.499  -1.710  1.00  0.00     0.101 C 
ENDROOT
BRANCH   1   2
ATOM      2  C   UNL     1       0.167   0.936  -0.278  1.00  0.00     0.201 C 
ATOM      3  Cl  UNL     1      -0.896   1.508   1.048  1.00  0.00    -0.083 Cl
ATOM      4  Cl  UNL     1       1.847   1.472   0.149  1.00  0.00    -0.083 Cl
ATOM      5  Cl  UNL     1       0.198  -0.868  -0.239  1.00  0.00    -0.083 Cl
ENDBRANCH   1   2
BRANCH   1   6
ATOM      6  C   UNL     1      -0.153   2.981  -1.858  1.00  0.00    -0.036 A 
ATOM      7  C   UNL     1       0.423   3.544  -2.997  1.00  0.00     0.006 A 
ATOM      8  C   UNL     1      -0.669   3.806  -0.858  1.00  0.00     0.006 A 
ATOM      9  C   UNL     1       0.482   4.931  -3.136  1.00  0.00     0.021 A 
ATOM     10  C   UNL     1      -0.610   5.192  -0.996  1.00  0.00     0.021 A 
ATOM     11  C   UNL     1      -0.034   5.755  -2.135  1.00  0.00     0.041 A 
ATOM     12  Cl  UNL     1       0.039   7.466  -2.306  1.00  0.00    -0.084 Cl
ENDBRANCH   1   6
BRANCH   1  13
ATOM     13  C   UNL     1      -1.469   0.881  -2.380  1.00  0.00    -0.036 A 
ATOM     14  C   UNL     1      -2.693   1.366  -2.015  1.00  0.00     0.006 A 
ATOM     15  C   UNL     1      -1.278  -0.114  -3.297  1.00  0.00     0.006 A 
ATOM     16  C   UNL     1      -3.821   0.809  -2.617  1.00  0.00     0.021 A 
ATOM     17  C   UNL     1      -2.407  -0.672  -3.898  1.00  0.00     0.021 A 
ATOM     18  C   UNL     1      -3.678  -0.210  -3.559  1.00  0.00     0.041 A 
ATOM     19  Cl  UNL     1      -5.070  -0.898  -4.301  1.00  0.00    -0.084 Cl
ENDBRANCH   1  13
TORSDOF 3
ENDMDL
MODEL 4
REMARK VINA RESULT:    -6.112      1.179      5.425
REMARK INTER + INTRA:          -7.776
REMARK INTER:                  -7.135
REMARK INTRA:                  -0.641
REMARK UNBOUND:                -0.593
REMARK SMILES Clc1ccc(C(c2ccc(Cl)cc2)C(Cl)(Cl)Cl)cc1
REMARK SMILES IDX 6 1 14 2 15 3 16 4 17 5 5 6 4 7 18 8 3 9 19 10 2 11 1 12
REMARK SMILES IDX 7 13 8 14 13 15 9 16 12 17 10 18 11 19
REMARK H PARENT
REMARK Flexibility Score: inf
ROOT
ATOM      1  C   UNL     1      -1.527   2.658  -2.490  1.00  0.00     0.101 C 
ENDROOT
BRANCH   1   2
ATOM      2  C   UNL     1      -2.699   1.608  -2.683  1.00  0.00     0.201 C 
ATOM      3  Cl  UNL     1      -2.169  -0.105  -2.648  1.00  0.00    -0.083 Cl
ATOM      4  Cl  UNL     1      -3.475   1.867  -4.303  1.00  0.00    -0.083 Cl
ATOM      5  Cl  UNL     1      -4.013   1.819  -1.465  1.00  0.00    -0.083 Cl
ENDBRANCH   1   2
BRANCH   1   6
ATOM      6  C   UNL     1      -0.429   2.239  -1.571  1.00  0.00    -0.036 A 
ATOM      7  C   UNL     1      -0.732   1.583  -0.378  1.00  0.00     0.006 A 
ATOM      8  C   UNL     1       0.899   2.504  -1.904  1.00  0.00     0.006 A 
ATOM      9  C   UNL     1       0.294   1.192   0.483  1.00  0.00     0.021 A 
ATOM     10  C   UNL     1       1.925   2.112  -1.044  1.00  0.00     0.021 A 
ATOM     11  C   UNL     1       1.623   1.456   0.149  1.00  0.00     0.041 A 
ATOM     12  Cl  UNL     1       2.889   0.974   1.211  1.00  0.00    -0.084 Cl
ENDBRANCH   1   6
BRANCH   1  13
ATOM     13  C   UNL     1      -1.952   4.133  -2.281  1.00  0.00    -0.036 A 
ATOM     14  C   UNL     1      -2.098   4.582  -0.999  1.00  0.00     0.006 A 
ATOM     15  C   UNL     1      -2.159   4.902  -3.393  1.00  0.00     0.006 A 
ATOM     16  C   UNL     1      -2.483   5.910  -0.812  1.00  0.00     0.021 A 
ATOM     17  C   UNL     1      -2.545   6.229  -3.205  1.00  0.00     0.021 A 
ATOM     18  C   UNL     1      -2.706   6.734  -1.915  1.00  0.00     0.041 A 
ATOM     19  Cl  UNL     1      -3.181   8.372  -1.684  1.00  0.00    -0.084 Cl
ENDBRANCH   1  13
TORSDOF 3
ENDMDL
MODEL 5
REMARK VINA RESULT:    -6.037      2.088      4.213
REMARK INTER + INTRA:          -7.688
REMARK INTER:                  -7.059
REMARK INTRA:                  -0.630
REMARK UNBOUND:                -0.593
REMARK SMILES Clc1ccc(C(c2ccc(Cl)cc2)C(Cl)(Cl)Cl)cc1
REMARK SMILES IDX 6 1 14 2 15 3 16 4 17 5 5 6 4 7 18 8 3 9 19 10 2 11 1 12
REMARK SMILES IDX 7 13 8 14 13 15 9 16 12 17 10 18 11 19
REMARK H PARENT
REMARK Flexibility Score: inf
ROOT
ATOM      1  C   UNL     1      -1.971   3.168  -2.018  1.00  0.00     0.101 C 
ENDROOT
BRANCH   1   2
ATOM      2  C   UNL     1      -2.744   4.359  -1.312  1.00  0.00     0.201 C 
ATOM      3  Cl  UNL     1      -3.955   5.173  -2.354  1.00  0.00    -0.083 Cl
ATOM      4  Cl  UNL     1      -1.554   5.638  -0.821  1.00  0.00    -0.083 Cl
ATOM      5  Cl  UNL     1      -3.564   3.836   0.207  1.00  0.00    -0.083 Cl
ENDBRANCH   1   2
BRANCH   1   6
ATOM      6  C   UNL     1      -2.831   2.123  -2.645  1.00  0.00    -0.036 A 
ATOM      7  C   UNL     1      -4.005   1.715  -2.013  1.00  0.00     0.006 A 
ATOM      8  C   UNL     1      -2.459   1.552  -3.863  1.00  0.00     0.006 A 
ATOM      9  C   UNL     1      -4.809   0.736  -2.598  1.00  0.00     0.021 A 
ATOM     10  C   UNL     1      -3.263   0.574  -4.449  1.00  0.00     0.021 A 
ATOM     11  C   UNL     1      -4.437   0.166  -3.817  1.00  0.00     0.041 A 
ATOM     12  Cl  UNL     1      -5.428  -1.042  -4.539  1.00  0.00    -0.084 Cl
ENDBRANCH   1   6
BRANCH   1  13
ATOM     13  C   UNL     1      -0.771   2.570  -1.241  1.00  0.00    -0.036 A 
ATOM     14  C   UNL     1       0.488   2.851  -1.693  1.00  0.00     0.006 A 
ATOM     15  C   UNL     1      -1.040   1.795  -0.148  1.00  0.00     0.006 A 
ATOM     16  C   UNL     1       1.567   2.312  -0.994  1.00  0.00     0.021 A 
ATOM     17  C   UNL     1       0.040   1.255   0.551  1.00  0.00     0.021 A 
ATOM     18  C   UNL     1       1.344   1.514   0.128  1.00  0.00     0.041 A 
ATOM     19  Cl  UNL     1       2.676   0.847   0.990  1.00  0.00    -0.084 Cl
ENDBRANCH   1  13
TORSDOF 3
ENDMDL
