MODEL 1
REMARK VINA RESULT:    -6.908      0.000      0.000
REMARK INTER + INTRA:         -11.610
REMARK INTER:                 -10.138
REMARK INTRA:                  -1.472
REMARK UNBOUND:                -1.472
REMARK SMILES CC1(C)C(C=C(Br)Br)C1C(=O)OC(C#N)c1cccc(Oc2ccccc2)c1
REMARK SMILES IDX 13 1 12 2 10 3 11 4 9 5 4 6 2 7 1 8 3 9 5 10 7 11 6 12 8 13
REMARK SMILES IDX 16 14 28 15 17 16 20 17 18 18 19 19 21 20 22 21 23 22 27 23
REMARK SMILES IDX 24 24 26 25 25 26 14 27 15 28
REMARK H PARENT
REMARK Flexibility Score: inf
ROOT
ATOM      1  C   UNL     1      -4.216   1.509  -2.697  1.00  0.00     0.309 C
ENDROOT
BRANCH   1   2
ATOM      2  O   UNL     1      -2.891   1.602  -3.236  1.00  0.00    -0.442 OA
BRANCH   2   3
ATOM      3  C   UNL     1      -1.891   1.253  -2.383  1.00  0.00     0.311 C
ATOM      4  O   UNL     1      -1.675   0.144  -1.915  1.00  0.00    -0.252 OA
BRANCH   3   5
ATOM      5  C   UNL     1      -1.030   2.419  -2.052  1.00  0.00     0.113 C
ATOM      6  C   UNL     1      -0.181   2.347  -0.824  1.00  0.00     0.035 C
ATOM      7  C   UNL     1      -1.356   3.278  -0.873  1.00  0.00    -0.014 C
ATOM      8  C   UNL     1      -2.534   2.939  -0.021  1.00  0.00     0.012 C
ATOM      9  C   UNL     1      -1.132   4.746  -1.022  1.00  0.00     0.012 C
BRANCH   6  10
ATOM     10  C   UNL     1      -0.231   1.136  -0.018  1.00  0.00     0.001 C
ATOM     11  Br  UNL     1       2.527   1.208   0.668  1.00  0.00    -0.043 Br
ATOM     12  C   UNL     1       0.775   0.546   0.649  1.00  0.00     0.057 C
ATOM     13  Br  UNL     1       0.493  -1.023   1.636  1.00  0.00    -0.043 Br
ENDBRANCH   6  10
ENDBRANCH   3   5
ENDBRANCH   2   3
ENDBRANCH   1   2
BRANCH   1  14
ATOM     14  C   UNL     1      -4.913   2.820  -2.830  1.00  0.00     0.011 A
ATOM     15  C   UNL     1      -4.320   3.855  -3.556  1.00  0.00     0.055 A
ATOM     16  C   UNL     1      -6.157   3.013  -2.231  1.00  0.00     0.009 A
ATOM     17  C   UNL     1      -4.973   5.081  -3.680  1.00  0.00     0.127 A
ATOM     18  C   UNL     1      -6.809   4.240  -2.356  1.00  0.00     0.004 A
ATOM     19  C   UNL     1      -6.217   5.274  -3.080  1.00  0.00     0.047 A
BRANCH  17  20
ATOM     20  O   UNL     1      -4.395   6.091  -4.387  1.00  0.00    -0.457 OA
BRANCH  20  21
ATOM     21  C   UNL     1      -3.297   6.722  -3.827  1.00  0.00     0.127 A
ATOM     22  C   UNL     1      -2.069   6.623  -4.456  1.00  0.00     0.047 A
ATOM     23  C   UNL     1      -3.456   7.435  -2.652  1.00  0.00     0.047 A
ATOM     24  C   UNL     1      -0.962   7.258  -3.892  1.00  0.00     0.004 A
ATOM     25  C   UNL     1      -2.349   8.069  -2.088  1.00  0.00     0.004 A
ATOM     26  C   UNL     1      -1.103   7.982  -2.708  1.00  0.00     0.000 A
ENDBRANCH  20  21
ENDBRANCH  17  20
ENDBRANCH   1  14
BRANCH   1  27
ATOM     27  C   UNL     1      -4.941   0.410  -3.367  1.00  0.00     0.113 C
ATOM     28  N   UNL     1      -5.508  -0.449  -3.904  1.00  0.00    -0.194 NA
ENDBRANCH   1  27
TORSDOF 8
ENDMDL
MODEL 2
REMARK VINA RESULT:    -6.799      3.009      6.574
REMARK INTER + INTRA:         -11.450
REMARK INTER:                 -10.779
REMARK INTRA:                  -0.671
REMARK UNBOUND:                -1.472
REMARK SMILES CC1(C)C(C=C(Br)Br)C1C(=O)OC(C#N)c1cccc(Oc2ccccc2)c1
REMARK SMILES IDX 13 1 12 2 10 3 11 4 9 5 4 6 2 7 1 8 3 9 5 10 7 11 6 12 8 13
REMARK SMILES IDX 16 14 28 15 17 16 20 17 18 18 19 19 21 20 22 21 23 22 27 23
REMARK SMILES IDX 24 24 26 25 25 26 14 27 15 28
REMARK H PARENT
REMARK Flexibility Score: inf
ROOT
ATOM      1  C   UNL     1      -3.898   1.291  -4.096  1.00  0.00     0.309 C
ENDROOT
BRANCH   1   2
ATOM      2  O   UNL     1      -4.327   2.428  -3.334  1.00  0.00    -0.442 OA
BRANCH   2   3
ATOM      3  C   UNL     1      -4.209   3.628  -3.964  1.00  0.00     0.311 C
ATOM      4  O   UNL     1      -3.279   4.005  -4.663  1.00  0.00    -0.252 OA
BRANCH   3   5
ATOM      5  C   UNL     1      -5.390   4.492  -3.708  1.00  0.00     0.113 C
ATOM      6  C   UNL     1      -5.159   5.866  -3.165  1.00  0.00     0.035 C
ATOM      7  C   UNL     1      -5.792   4.813  -2.304  1.00  0.00    -0.014 C
ATOM      8  C   UNL     1      -4.982   4.280  -1.169  1.00  0.00     0.012 C
ATOM      9  C   UNL     1      -7.255   4.873  -2.015  1.00  0.00     0.012 C
BRANCH   6  10
ATOM     10  C   UNL     1      -3.790   6.293  -2.924  1.00  0.00     0.001 C
ATOM     11  Br  UNL     1      -4.439   9.056  -2.769  1.00  0.00    -0.043 Br
ATOM     12  C   UNL     1      -3.335   7.545  -2.743  1.00  0.00     0.057 C
ATOM     13  Br  UNL     1      -1.514   7.879  -2.444  1.00  0.00    -0.043 Br
ENDBRANCH   6  10
ENDBRANCH   3   5
ENDBRANCH   2   3
ENDBRANCH   1   2
BRANCH   1  14
ATOM     14  C   UNL     1      -2.748   0.629  -3.419  1.00  0.00     0.011 A
ATOM     15  C   UNL     1      -1.774   1.401  -2.783  1.00  0.00     0.055 A
ATOM     16  C   UNL     1      -2.644  -0.762  -3.419  1.00  0.00     0.009 A
ATOM     17  C   UNL     1      -0.698   0.781  -2.150  1.00  0.00     0.127 A
ATOM     18  C   UNL     1      -1.567  -1.381  -2.785  1.00  0.00     0.004 A
ATOM     19  C   UNL     1      -0.593  -0.610  -2.151  1.00  0.00     0.047 A
BRANCH  17  20
ATOM     20  O   UNL     1       0.253   1.533  -1.530  1.00  0.00    -0.457 OA
BRANCH  20  21
ATOM     21  C   UNL     1       0.463   1.317  -0.178  1.00  0.00     0.127 A
ATOM     22  C   UNL     1       1.726   0.960   0.259  1.00  0.00     0.047 A
ATOM     23  C   UNL     1      -0.595   1.466   0.701  1.00  0.00     0.047 A
ATOM     24  C   UNL     1       1.938   0.742   1.621  1.00  0.00     0.004 A
ATOM     25  C   UNL     1      -0.383   1.247   2.062  1.00  0.00     0.004 A
ATOM     26  C   UNL     1       0.883   0.887   2.523  1.00  0.00     0.000 A
ENDBRANCH  20  21
ENDBRANCH  17  20
ENDBRANCH   1  14
BRANCH   1  27
ATOM     27  C   UNL     1      -5.042   0.378  -4.296  1.00  0.00     0.113 C
ATOM     28  N   UNL     1      -5.934  -0.349  -4.451  1.00  0.00    -0.194 NA
ENDBRANCH   1  27
TORSDOF 8
ENDMDL
MODEL 3
REMARK VINA RESULT:    -6.734      2.057      4.250
REMARK INTER + INTRA:         -11.355
REMARK INTER:                 -10.536
REMARK INTRA:                  -0.819
REMARK UNBOUND:                -1.472
REMARK SMILES CC1(C)C(C=C(Br)Br)C1C(=O)OC(C#N)c1cccc(Oc2ccccc2)c1
REMARK SMILES IDX 13 1 12 2 10 3 11 4 9 5 4 6 2 7 1 8 3 9 5 10 7 11 6 12 8 13
REMARK SMILES IDX 16 14 28 15 17 16 20 17 18 18 19 19 21 20 22 21 23 22 27 23
REMARK SMILES IDX 24 24 26 25 25 26 14 27 15 28
REMARK H PARENT
REMARK Flexibility Score: inf
ROOT
ATOM      1  C   UNL     1      -4.186   1.754  -2.455  1.00  0.00     0.309 C
ENDROOT
BRANCH   1   2
ATOM      2  O   UNL     1      -2.887   1.901  -3.047  1.00  0.00    -0.442 OA
BRANCH   2   3
ATOM      3  C   UNL     1      -1.849   1.459  -2.287  1.00  0.00     0.311 C
ATOM      4  O   UNL     1      -1.688   0.331  -1.843  1.00  0.00    -0.252 OA
BRANCH   3   5
ATOM      5  C   UNL     1      -0.866   2.544  -2.030  1.00  0.00     0.113 C
ATOM      6  C   UNL     1       0.055   2.404  -0.861  1.00  0.00     0.035 C
ATOM      7  C   UNL     1      -1.032   3.438  -0.844  1.00  0.00    -0.014 C
ATOM      8  C   UNL     1      -2.174   3.214   0.091  1.00  0.00     0.012 C
ATOM      9  C   UNL     1      -0.687   4.879  -1.027  1.00  0.00     0.012 C
BRANCH   6  10
ATOM     10  C   UNL     1      -0.049   1.209  -0.038  1.00  0.00     0.001 C
ATOM     11  Br  UNL     1       2.694   1.211   0.709  1.00  0.00    -0.043 Br
ATOM     12  C   UNL     1       0.925   0.601   0.660  1.00  0.00     0.057 C
ATOM     13  Br  UNL     1       0.575  -0.943   1.665  1.00  0.00    -0.043 Br
ENDBRANCH   6  10
ENDBRANCH   3   5
ENDBRANCH   2   3
ENDBRANCH   1   2
BRANCH   1  14
ATOM     14  C   UNL     1      -4.919   3.051  -2.510  1.00  0.00     0.011 A
ATOM     15  C   UNL     1      -6.312   3.069  -2.424  1.00  0.00     0.055 A
ATOM     16  C   UNL     1      -4.213   4.246  -2.647  1.00  0.00     0.009 A
ATOM     17  C   UNL     1      -6.997   4.282  -2.476  1.00  0.00     0.127 A
ATOM     18  C   UNL     1      -4.899   5.459  -2.698  1.00  0.00     0.004 A
ATOM     19  C   UNL     1      -6.291   5.478  -2.613  1.00  0.00     0.047 A
BRANCH  17  20
ATOM     20  O   UNL     1      -8.356   4.301  -2.393  1.00  0.00    -0.457 OA
BRANCH  20  21
ATOM     21  C   UNL     1      -8.922   4.367  -1.130  1.00  0.00     0.127 A
ATOM     22  C   UNL     1      -9.645   3.287  -0.659  1.00  0.00     0.047 A
ATOM     23  C   UNL     1      -8.751   5.513  -0.374  1.00  0.00     0.047 A
ATOM     24  C   UNL     1     -10.216   3.353   0.613  1.00  0.00     0.004 A
ATOM     25  C   UNL     1      -9.322   5.580   0.896  1.00  0.00     0.004 A
ATOM     26  C   UNL     1     -10.054   4.500   1.391  1.00  0.00     0.000 A
ENDBRANCH  20  21
ENDBRANCH  17  20
ENDBRANCH   1  14
BRANCH   1  27
ATOM     27  C   UNL     1      -4.911   0.661  -3.133  1.00  0.00     0.113 C
ATOM     28  N   UNL     1      -5.483  -0.191  -3.674  1.00  0.00    -0.194 NA
ENDBRANCH   1  27
TORSDOF 8
ENDMDL
MODEL 4
REMARK VINA RESULT:    -6.541      3.334      4.575
REMARK INTER + INTRA:         -11.072
REMARK INTER:                  -9.262
REMARK INTRA:                  -1.810
REMARK UNBOUND:                -1.472
REMARK SMILES CC1(C)C(C=C(Br)Br)C1C(=O)OC(C#N)c1cccc(Oc2ccccc2)c1
REMARK SMILES IDX 13 1 12 2 10 3 11 4 9 5 4 6 2 7 1 8 3 9 5 10 7 11 6 12 8 13
REMARK SMILES IDX 16 14 28 15 17 16 20 17 18 18 19 19 21 20 22 21 23 22 27 23
REMARK SMILES IDX 24 24 26 25 25 26 14 27 15 28
REMARK H PARENT
REMARK Flexibility Score: inf
ROOT
ATOM      1  C   UNL     1       1.134   2.618  -3.111  1.00  0.00     0.309 C
ENDROOT
BRANCH   1   2
ATOM      2  O   UNL     1       1.250   2.997  -1.732  1.00  0.00    -0.442 OA
BRANCH   2   3
ATOM      3  C   UNL     1       1.808   2.062  -0.918  1.00  0.00     0.311 C
ATOM      4  O   UNL     1       2.896   2.124  -0.362  1.00  0.00    -0.252 OA
BRANCH   3   5
ATOM      5  C   UNL     1       0.918   0.883  -0.756  1.00  0.00     0.113 C
ATOM      6  C   UNL     1      -0.493   1.115  -0.318  1.00  0.00     0.035 C
ATOM      7  C   UNL     1       0.485   0.455   0.610  1.00  0.00    -0.014 C
ATOM      8  C   UNL     1       0.932   1.235   1.800  1.00  0.00     0.012 C
ATOM      9  C   UNL     1       0.391  -1.014   0.861  1.00  0.00     0.012 C
BRANCH   6  10
ATOM     10  C   UNL     1      -0.928   2.483  -0.081  1.00  0.00     0.001 C
ATOM     11  Br  UNL     1      -3.578   2.041  -1.009  1.00  0.00    -0.043 Br
ATOM     12  C   UNL     1      -2.141   3.014  -0.308  1.00  0.00     0.057 C
ATOM     13  Br  UNL     1      -2.495   4.817   0.071  1.00  0.00    -0.043 Br
ENDBRANCH   6  10
ENDBRANCH   3   5
ENDBRANCH   2   3
ENDBRANCH   1   2
BRANCH   1  14
ATOM     14  C   UNL     1      -0.183   3.059  -3.650  1.00  0.00     0.011 A
ATOM     15  C   UNL     1      -0.416   4.411  -3.907  1.00  0.00     0.055 A
ATOM     16  C   UNL     1      -1.184   2.120  -3.901  1.00  0.00     0.009 A
ATOM     17  C   UNL     1      -1.648   4.823  -4.412  1.00  0.00     0.127 A
ATOM     18  C   UNL     1      -2.417   2.534  -4.406  1.00  0.00     0.004 A
ATOM     19  C   UNL     1      -2.649   3.885  -4.662  1.00  0.00     0.047 A
BRANCH  17  20
ATOM     20  O   UNL     1      -1.875   6.142  -4.662  1.00  0.00    -0.457 OA
BRANCH  20  21
ATOM     21  C   UNL     1      -2.450   6.898  -3.653  1.00  0.00     0.127 A
ATOM     22  C   UNL     1      -1.636   7.474  -2.696  1.00  0.00     0.047 A
ATOM     23  C   UNL     1      -3.824   7.057  -3.630  1.00  0.00     0.047 A
ATOM     24  C   UNL     1      -2.214   8.235  -1.679  1.00  0.00     0.004 A
ATOM     25  C   UNL     1      -4.402   7.817  -2.614  1.00  0.00     0.004 A
ATOM     26  C   UNL     1      -3.598   8.407  -1.639  1.00  0.00     0.000 A
ENDBRANCH  20  21
ENDBRANCH  17  20
ENDBRANCH   1  14
BRANCH   1  27
ATOM     27  C   UNL     1       2.273   3.174  -3.868  1.00  0.00     0.113 C
ATOM     28  N   UNL     1       3.170   3.602  -4.469  1.00  0.00    -0.194 NA
ENDBRANCH   1  27
TORSDOF 8
ENDMDL
MODEL 5
REMARK VINA RESULT:    -6.477      3.164      5.125
REMARK INTER + INTRA:         -10.978
REMARK INTER:                  -9.707
REMARK INTRA:                  -1.271
REMARK UNBOUND:                -1.472
REMARK SMILES CC1(C)C(C=C(Br)Br)C1C(=O)OC(C#N)c1cccc(Oc2ccccc2)c1
REMARK SMILES IDX 13 1 12 2 10 3 11 4 9 5 4 6 2 7 1 8 3 9 5 10 7 11 6 12 8 13
REMARK SMILES IDX 16 14 28 15 17 16 20 17 18 18 19 19 21 20 22 21 23 22 27 23
REMARK SMILES IDX 24 24 26 25 25 26 14 27 15 28
REMARK H PARENT
REMARK Flexibility Score: inf
ROOT
ATOM      1  C   UNL     1       0.113   1.231  -1.816  1.00  0.00     0.309 C
ENDROOT
BRANCH   1   2
ATOM      2  O   UNL     1      -1.290   0.948  -1.719  1.00  0.00    -0.442 OA
BRANCH   2   3
ATOM      3  C   UNL     1      -1.751  -0.004  -2.573  1.00  0.00     0.311 C
ATOM      4  O   UNL     1      -1.491  -1.199  -2.554  1.00  0.00    -0.252 OA
BRANCH   3   5
ATOM      5  C   UNL     1      -2.657   0.579  -3.596  1.00  0.00     0.113 C
ATOM      6  C   UNL     1      -3.449   1.793  -3.233  1.00  0.00     0.035 C
ATOM      7  C   UNL     1      -4.139   0.476  -3.429  1.00  0.00    -0.014 C
ATOM      8  C   UNL     1      -4.696  -0.192  -2.216  1.00  0.00     0.012 C
ATOM      9  C   UNL     1      -4.945   0.239  -4.663  1.00  0.00     0.012 C
BRANCH   6  10
ATOM     10  C   UNL     1      -3.287   2.351  -1.899  1.00  0.00     0.001 C
ATOM     11  Br  UNL     1      -5.409   4.223  -2.178  1.00  0.00    -0.043 Br
ATOM     12  C   UNL     1      -3.998   3.336  -1.324  1.00  0.00     0.057 C
ATOM     13  Br  UNL     1      -3.622   3.909   0.422  1.00  0.00    -0.043 Br
ENDBRANCH   6  10
ENDBRANCH   3   5
ENDBRANCH   2   3
ENDBRANCH   1   2
BRANCH   1  14
ATOM     14  C   UNL     1       0.325   2.506  -2.558  1.00  0.00     0.011 A
ATOM     15  C   UNL     1       0.167   3.729  -1.905  1.00  0.00     0.055 A
ATOM     16  C   UNL     1       0.682   2.477  -3.906  1.00  0.00     0.009 A
ATOM     17  C   UNL     1       0.366   4.921  -2.600  1.00  0.00     0.127 A
ATOM     18  C   UNL     1       0.880   3.670  -4.601  1.00  0.00     0.004 A
ATOM     19  C   UNL     1       0.722   4.892  -3.949  1.00  0.00     0.047 A
BRANCH  17  20
ATOM     20  O   UNL     1       0.212   6.115  -1.964  1.00  0.00    -0.457 OA
BRANCH  20  21
ATOM     21  C   UNL     1      -0.935   6.844  -2.233  1.00  0.00     0.127 A
ATOM     22  C   UNL     1      -2.067   6.624  -1.469  1.00  0.00     0.047 A
ATOM     23  C   UNL     1      -0.919   7.773  -3.258  1.00  0.00     0.047 A
ATOM     24  C   UNL     1      -3.223   7.358  -1.740  1.00  0.00     0.004 A
ATOM     25  C   UNL     1      -2.074   8.505  -3.529  1.00  0.00     0.004 A
ATOM     26  C   UNL     1      -3.226   8.299  -2.770  1.00  0.00     0.000 A
ENDBRANCH  20  21
ENDBRANCH  17  20
ENDBRANCH   1  14
BRANCH   1  27
ATOM     27  C   UNL     1       0.701   1.259  -0.461  1.00  0.00     0.113 C
ATOM     28  N   UNL     1       1.155   1.287   0.607  1.00  0.00    -0.194 NA
ENDBRANCH   1  27
TORSDOF 8
ENDMDL
