MODEL 1
REMARK VINA RESULT:    -6.628      0.000      0.000
REMARK INTER + INTRA:         -12.482
REMARK INTER:                  -9.341
REMARK INTRA:                  -3.142
REMARK UNBOUND:                -3.142
REMARK SMILES CC1(C)[C@H](C=C(Cl)Cl)[C@H]1C(=O)OCc1cccc(Oc2ccccc2)c1
REMARK SMILES IDX 13 1 12 2 10 3 11 4 9 5 4 6 2 7 1 8 3 9 5 10 7 11 6 12 8 13
REMARK SMILES IDX 14 14 26 15 15 16 18 17 16 18 17 19 19 20 20 21 21 22 25 23
REMARK SMILES IDX 22 24 24 25 23 26
REMARK H PARENT
REMARK Flexibility Score: inf
ROOT
ATOM      1  C   UNL     1      -0.606   6.885  -3.153  1.00  0.00     0.268 C 
ENDROOT
BRANCH   1   2
ATOM      2  O   UNL     1      -0.419   5.496  -2.916  1.00  0.00    -0.461 OA
BRANCH   2   3
ATOM      3  C   UNL     1      -0.032   5.157  -1.652  1.00  0.00     0.310 C 
ATOM      4  O   UNL     1       0.684   5.813  -0.908  1.00  0.00    -0.252 OA
BRANCH   3   5
ATOM      5  C   UNL     1      -0.590   3.845  -1.236  1.00  0.00     0.113 C 
ATOM      6  C   UNL     1      -1.771   3.309  -1.981  1.00  0.00     0.035 C 
ATOM      7  C   UNL     1      -1.925   3.778  -0.564  1.00  0.00    -0.014 C 
ATOM      8  C   UNL     1      -2.171   2.741   0.479  1.00  0.00     0.012 C 
ATOM      9  C   UNL     1      -2.610   5.073  -0.282  1.00  0.00     0.012 C 
BRANCH   6  10
ATOM     10  C   UNL     1      -1.801   1.887  -2.294  1.00  0.00     0.011 C 
ATOM     11  Cl  UNL     1      -0.196   2.097  -4.448  1.00  0.00    -0.071 Cl
ATOM     12  C   UNL     1      -1.181   1.258  -3.304  1.00  0.00     0.103 C 
ATOM     13  Cl  UNL     1      -1.349  -0.451  -3.504  1.00  0.00    -0.071 Cl
ENDBRANCH   6  10
ENDBRANCH   3   5
ENDBRANCH   2   3
ENDBRANCH   1   2
BRANCH   1  14
ATOM     14  C   UNL     1      -2.057   7.215  -3.052  1.00  0.00    -0.007 A 
ATOM     15  C   UNL     1      -3.005   6.375  -3.635  1.00  0.00     0.054 A 
ATOM     16  C   UNL     1      -2.465   8.362  -2.371  1.00  0.00     0.007 A 
ATOM     17  C   UNL     1      -4.362   6.683  -3.539  1.00  0.00     0.127 A 
ATOM     18  C   UNL     1      -3.822   8.671  -2.276  1.00  0.00     0.004 A 
ATOM     19  C   UNL     1      -4.770   7.831  -2.860  1.00  0.00     0.047 A 
BRANCH  17  20
ATOM     20  O   UNL     1      -5.288   5.864  -4.109  1.00  0.00    -0.457 OA
BRANCH  20  21
ATOM     21  C   UNL     1      -5.292   4.533  -3.729  1.00  0.00     0.127 A 
ATOM     22  C   UNL     1      -4.967   3.565  -4.663  1.00  0.00     0.047 A 
ATOM     23  C   UNL     1      -5.621   4.205  -2.427  1.00  0.00     0.047 A 
ATOM     24  C   UNL     1      -4.970   2.224  -4.280  1.00  0.00     0.004 A 
ATOM     25  C   UNL     1      -5.624   2.863  -2.044  1.00  0.00     0.004 A 
ATOM     26  C   UNL     1      -5.298   1.873  -2.971  1.00  0.00     0.000 A 
ENDBRANCH  20  21
ENDBRANCH  17  20
ENDBRANCH   1  14
TORSDOF 7
ENDMDL
MODEL 2
REMARK VINA RESULT:    -6.330      2.296      4.485
REMARK INTER + INTRA:         -12.062
REMARK INTER:                  -9.874
REMARK INTRA:                  -2.188
REMARK UNBOUND:                -3.142
REMARK SMILES CC1(C)[C@H](C=C(Cl)Cl)[C@H]1C(=O)OCc1cccc(Oc2ccccc2)c1
REMARK SMILES IDX 13 1 12 2 10 3 11 4 9 5 4 6 2 7 1 8 3 9 5 10 7 11 6 12 8 13
REMARK SMILES IDX 14 14 26 15 15 16 18 17 16 18 17 19 19 20 20 21 21 22 25 23
REMARK SMILES IDX 22 24 24 25 23 26
REMARK H PARENT
REMARK Flexibility Score: inf
ROOT
ATOM      1  C   UNL     1      -4.613   1.986  -4.061  1.00  0.00     0.268 C 
ENDROOT
BRANCH   1   2
ATOM      2  O   UNL     1      -3.223   2.008  -3.759  1.00  0.00    -0.461 OA
BRANCH   2   3
ATOM      3  C   UNL     1      -2.879   1.572  -2.512  1.00  0.00     0.310 C 
ATOM      4  O   UNL     1      -3.401   0.657  -1.890  1.00  0.00    -0.252 OA
BRANCH   3   5
ATOM      5  C   UNL     1      -1.750   2.352  -1.946  1.00  0.00     0.113 C 
ATOM      6  C   UNL     1      -1.364   2.110  -0.521  1.00  0.00     0.035 C 
ATOM      7  C   UNL     1      -2.008   3.406  -0.917  1.00  0.00    -0.014 C 
ATOM      8  C   UNL     1      -1.158   4.631  -0.890  1.00  0.00     0.012 C 
ATOM      9  C   UNL     1      -3.431   3.668  -0.555  1.00  0.00     0.012 C 
BRANCH   6  10
ATOM     10  C   UNL     1       0.052   2.061  -0.189  1.00  0.00     0.011 C 
ATOM     11  Cl  UNL     1       0.197  -0.629  -0.210  1.00  0.00    -0.071 Cl
ATOM     12  C   UNL     1       0.819   0.972  -0.030  1.00  0.00     0.103 C 
ATOM     13  Cl  UNL     1       2.494   1.132   0.370  1.00  0.00    -0.071 Cl
ENDBRANCH   6  10
ENDBRANCH   3   5
ENDBRANCH   2   3
ENDBRANCH   1   2
BRANCH   1  14
ATOM     14  C   UNL     1      -5.261   3.208  -3.502  1.00  0.00    -0.007 A 
ATOM     15  C   UNL     1      -4.805   4.472  -3.876  1.00  0.00     0.054 A 
ATOM     16  C   UNL     1      -6.323   3.085  -2.606  1.00  0.00     0.007 A 
ATOM     17  C   UNL     1      -5.412   5.614  -3.353  1.00  0.00     0.127 A 
ATOM     18  C   UNL     1      -6.929   4.227  -2.083  1.00  0.00     0.004 A 
ATOM     19  C   UNL     1      -6.473   5.491  -2.457  1.00  0.00     0.047 A 
BRANCH  17  20
ATOM     20  O   UNL     1      -4.968   6.848  -3.718  1.00  0.00    -0.457 OA
BRANCH  20  21
ATOM     21  C   UNL     1      -3.712   7.235  -3.285  1.00  0.00     0.127 A 
ATOM     22  C   UNL     1      -2.641   7.144  -4.157  1.00  0.00     0.047 A 
ATOM     23  C   UNL     1      -3.558   7.701  -1.993  1.00  0.00     0.047 A 
ATOM     24  C   UNL     1      -1.375   7.533  -3.721  1.00  0.00     0.004 A 
ATOM     25  C   UNL     1      -2.291   8.091  -1.557  1.00  0.00     0.004 A 
ATOM     26  C   UNL     1      -1.200   8.008  -2.421  1.00  0.00     0.000 A 
ENDBRANCH  20  21
ENDBRANCH  17  20
ENDBRANCH   1  14
TORSDOF 7
ENDMDL
MODEL 3
REMARK VINA RESULT:    -6.326      2.529      5.068
REMARK INTER + INTRA:         -12.057
REMARK INTER:                  -9.955
REMARK INTRA:                  -2.101
REMARK UNBOUND:                -3.142
REMARK SMILES CC1(C)[C@H](C=C(Cl)Cl)[C@H]1C(=O)OCc1cccc(Oc2ccccc2)c1
REMARK SMILES IDX 13 1 12 2 10 3 11 4 9 5 4 6 2 7 1 8 3 9 5 10 7 11 6 12 8 13
REMARK SMILES IDX 14 14 26 15 15 16 18 17 16 18 17 19 19 20 20 21 21 22 25 23
REMARK SMILES IDX 22 24 24 25 23 26
REMARK H PARENT
REMARK Flexibility Score: inf
ROOT
ATOM      1  C   UNL     1       1.111   3.683  -2.056  1.00  0.00     0.268 C 
ENDROOT
BRANCH   1   2
ATOM      2  O   UNL     1       0.165   4.683  -2.411  1.00  0.00    -0.461 OA
BRANCH   2   3
ATOM      3  C   UNL     1      -0.013   5.683  -1.499  1.00  0.00     0.310 C 
ATOM      4  O   UNL     1       0.844   6.170  -0.775  1.00  0.00    -0.252 OA
BRANCH   3   5
ATOM      5  C   UNL     1      -1.420   6.155  -1.464  1.00  0.00     0.113 C 
ATOM      6  C   UNL     1      -2.276   5.924  -2.669  1.00  0.00     0.035 C 
ATOM      7  C   UNL     1      -1.843   7.315  -2.309  1.00  0.00    -0.014 C 
ATOM      8  C   UNL     1      -2.889   8.250  -1.802  1.00  0.00     0.012 C 
ATOM      9  C   UNL     1      -0.784   7.993  -3.112  1.00  0.00     0.012 C 
BRANCH   6  10
ATOM     10  C   UNL     1      -3.656   5.506  -2.464  1.00  0.00     0.011 C 
ATOM     11  Cl  UNL     1      -3.011   3.094  -1.450  1.00  0.00    -0.071 Cl
ATOM     12  C   UNL     1      -4.092   4.341  -1.960  1.00  0.00     0.103 C 
ATOM     13  Cl  UNL     1      -5.787   4.036  -1.801  1.00  0.00    -0.071 Cl
ENDBRANCH   6  10
ENDBRANCH   3   5
ENDBRANCH   2   3
ENDBRANCH   1   2
BRANCH   1  14
ATOM     14  C   UNL     1       0.441   2.351  -2.033  1.00  0.00    -0.007 A 
ATOM     15  C   UNL     1      -0.158   1.852  -3.189  1.00  0.00     0.054 A 
ATOM     16  C   UNL     1       0.414   1.605  -0.855  1.00  0.00     0.007 A 
ATOM     17  C   UNL     1      -0.784   0.606  -3.167  1.00  0.00     0.127 A 
ATOM     18  C   UNL     1      -0.213   0.360  -0.833  1.00  0.00     0.004 A 
ATOM     19  C   UNL     1      -0.812  -0.140  -1.989  1.00  0.00     0.047 A 
BRANCH  17  20
ATOM     20  O   UNL     1      -1.369   0.118  -4.296  1.00  0.00    -0.457 OA
BRANCH  20  21
ATOM     21  C   UNL     1      -2.749   0.179  -4.384  1.00  0.00     0.127 A 
ATOM     22  C   UNL     1      -3.482  -0.990  -4.281  1.00  0.00     0.047 A 
ATOM     23  C   UNL     1      -3.359   1.405  -4.574  1.00  0.00     0.047 A 
ATOM     24  C   UNL     1      -4.872  -0.929  -4.371  1.00  0.00     0.004 A 
ATOM     25  C   UNL     1      -4.750   1.465  -4.663  1.00  0.00     0.004 A 
ATOM     26  C   UNL     1      -5.507   0.298  -4.561  1.00  0.00     0.000 A 
ENDBRANCH  20  21
ENDBRANCH  17  20
ENDBRANCH   1  14
TORSDOF 7
ENDMDL
MODEL 4
REMARK VINA RESULT:    -6.245      2.734      5.259
REMARK INTER + INTRA:         -11.942
REMARK INTER:                  -8.802
REMARK INTRA:                  -3.141
REMARK UNBOUND:                -3.142
REMARK SMILES CC1(C)[C@H](C=C(Cl)Cl)[C@H]1C(=O)OCc1cccc(Oc2ccccc2)c1
REMARK SMILES IDX 13 1 12 2 10 3 11 4 9 5 4 6 2 7 1 8 3 9 5 10 7 11 6 12 8 13
REMARK SMILES IDX 14 14 26 15 15 16 18 17 16 18 17 19 19 20 20 21 21 22 25 23
REMARK SMILES IDX 22 24 24 25 23 26
REMARK H PARENT
REMARK Flexibility Score: inf
ROOT
ATOM      1  C   UNL     1      -0.543   1.293  -0.620  1.00  0.00     0.268 C 
ENDROOT
BRANCH   1   2
ATOM      2  O   UNL     1      -0.485   2.711  -0.710  1.00  0.00    -0.461 OA
BRANCH   2   3
ATOM      3  C   UNL     1       0.618   3.222  -1.330  1.00  0.00     0.310 C 
ATOM      4  O   UNL     1       1.748   2.755  -1.310  1.00  0.00    -0.252 OA
BRANCH   3   5
ATOM      5  C   UNL     1       0.306   4.467  -2.076  1.00  0.00     0.113 C 
ATOM      6  C   UNL     1      -1.120   4.739  -2.438  1.00  0.00     0.035 C 
ATOM      7  C   UNL     1      -0.125   4.395  -3.507  1.00  0.00    -0.014 C 
ATOM      8  C   UNL     1       0.272   5.481  -4.449  1.00  0.00     0.012 C 
ATOM      9  C   UNL     1      -0.154   3.045  -4.141  1.00  0.00     0.012 C 
BRANCH   6  10
ATOM     10  C   UNL     1      -1.619   6.100  -2.304  1.00  0.00     0.011 C 
ATOM     11  Cl  UNL     1      -2.771   5.683   0.095  1.00  0.00    -0.071 Cl
ATOM     12  C   UNL     1      -2.325   6.617  -1.287  1.00  0.00     0.103 C 
ATOM     13  Cl  UNL     1      -2.827   8.271  -1.323  1.00  0.00    -0.071 Cl
ENDBRANCH   6  10
ENDBRANCH   3   5
ENDBRANCH   2   3
ENDBRANCH   1   2
BRANCH   1  14
ATOM     14  C   UNL     1      -1.453   0.766  -1.678  1.00  0.00    -0.007 A 
ATOM     15  C   UNL     1      -2.696   1.362  -1.889  1.00  0.00     0.054 A 
ATOM     16  C   UNL     1      -1.059  -0.323  -2.456  1.00  0.00     0.007 A 
ATOM     17  C   UNL     1      -3.546   0.869  -2.879  1.00  0.00     0.127 A 
ATOM     18  C   UNL     1      -1.910  -0.816  -3.445  1.00  0.00     0.004 A 
ATOM     19  C   UNL     1      -3.153  -0.220  -3.656  1.00  0.00     0.047 A 
BRANCH  17  20
ATOM     20  O   UNL     1      -4.759   1.451  -3.086  1.00  0.00    -0.457 OA
BRANCH  20  21
ATOM     21  C   UNL     1      -4.787   2.813  -3.330  1.00  0.00     0.127 A 
ATOM     22  C   UNL     1      -4.092   3.317  -4.416  1.00  0.00     0.047 A 
ATOM     23  C   UNL     1      -5.509   3.635  -2.485  1.00  0.00     0.047 A 
ATOM     24  C   UNL     1      -4.120   4.688  -4.663  1.00  0.00     0.004 A 
ATOM     25  C   UNL     1      -5.537   5.008  -2.733  1.00  0.00     0.004 A 
ATOM     26  C   UNL     1      -4.843   5.534  -3.822  1.00  0.00     0.000 A 
ENDBRANCH  20  21
ENDBRANCH  17  20
ENDBRANCH   1  14
TORSDOF 7
ENDMDL
MODEL 5
REMARK VINA RESULT:    -6.131      2.674      6.034
REMARK INTER + INTRA:         -11.782
REMARK INTER:                  -9.249
REMARK INTRA:                  -2.533
REMARK UNBOUND:                -3.142
REMARK SMILES CC1(C)[C@H](C=C(Cl)Cl)[C@H]1C(=O)OCc1cccc(Oc2ccccc2)c1
REMARK SMILES IDX 13 1 12 2 10 3 11 4 9 5 4 6 2 7 1 8 3 9 5 10 7 11 6 12 8 13
REMARK SMILES IDX 14 14 26 15 15 16 18 17 16 18 17 19 19 20 20 21 21 22 25 23
REMARK SMILES IDX 22 24 24 25 23 26
REMARK H PARENT
REMARK Flexibility Score: inf
ROOT
ATOM      1  C   UNL     1      -5.529   2.110  -2.966  1.00  0.00     0.268 C 
ENDROOT
BRANCH   1   2
ATOM      2  O   UNL     1      -4.868   3.370  -2.968  1.00  0.00    -0.461 OA
BRANCH   2   3
ATOM      3  C   UNL     1      -5.211   4.222  -1.960  1.00  0.00     0.310 C 
ATOM      4  O   UNL     1      -6.328   4.381  -1.487  1.00  0.00    -0.252 OA
BRANCH   3   5
ATOM      5  C   UNL     1      -4.040   4.984  -1.457  1.00  0.00     0.113 C 
ATOM      6  C   UNL     1      -2.673   4.530  -1.860  1.00  0.00     0.035 C 
ATOM      7  C   UNL     1      -3.130   4.372  -0.439  1.00  0.00    -0.014 C 
ATOM      8  C   UNL     1      -2.487   5.241   0.589  1.00  0.00     0.012 C 
ATOM      9  C   UNL     1      -3.496   3.021   0.076  1.00  0.00     0.012 C 
BRANCH   6  10
ATOM     10  C   UNL     1      -1.686   5.541  -2.209  1.00  0.00     0.011 C 
ATOM     11  Cl  UNL     1      -1.184   4.532  -4.656  1.00  0.00    -0.071 Cl
ATOM     12  C   UNL     1      -0.992   5.648  -3.353  1.00  0.00     0.103 C 
ATOM     13  Cl  UNL     1       0.145   6.933  -3.569  1.00  0.00    -0.071 Cl
ENDBRANCH   6  10
ENDBRANCH   3   5
ENDBRANCH   2   3
ENDBRANCH   1   2
BRANCH   1  14
ATOM     14  C   UNL     1      -4.607   1.065  -3.497  1.00  0.00    -0.007 A 
ATOM     15  C   UNL     1      -3.229   1.201  -3.328  1.00  0.00     0.054 A 
ATOM     16  C   UNL     1      -5.123  -0.047  -4.161  1.00  0.00     0.007 A 
ATOM     17  C   UNL     1      -2.367   0.223  -3.825  1.00  0.00     0.127 A 
ATOM     18  C   UNL     1      -4.261  -1.024  -4.658  1.00  0.00     0.004 A 
ATOM     19  C   UNL     1      -2.883  -0.889  -4.490  1.00  0.00     0.047 A 
BRANCH  17  20
ATOM     20  O   UNL     1      -1.022   0.354  -3.661  1.00  0.00    -0.457 OA
BRANCH  20  21
ATOM     21  C   UNL     1      -0.557   0.703  -2.404  1.00  0.00     0.127 A 
ATOM     22  C   UNL     1      -0.188   2.015  -2.163  1.00  0.00     0.047 A 
ATOM     23  C   UNL     1      -0.474  -0.267  -1.423  1.00  0.00     0.047 A 
ATOM     24  C   UNL     1       0.280   2.367  -0.898  1.00  0.00     0.004 A 
ATOM     25  C   UNL     1      -0.006   0.086  -0.156  1.00  0.00     0.004 A 
ATOM     26  C   UNL     1       0.371   1.403   0.106  1.00  0.00     0.000 A 
ENDBRANCH  20  21
ENDBRANCH  17  20
ENDBRANCH   1  14
TORSDOF 7
ENDMDL
