MODEL 1
REMARK VINA RESULT:    -6.530      0.000      0.000
REMARK INTER + INTRA:          -8.283
REMARK INTER:                  -7.675
REMARK INTRA:                  -0.608
REMARK UNBOUND:                -0.608
REMARK SMILES Clc1ccc(C(c2ccc(Cl)cc2)C(Cl)(Cl)Cl)cc1
REMARK SMILES IDX 6 1 14 2 15 3 16 4 17 5 5 6 4 7 18 8 3 9 19 10 2 11 1 12
REMARK SMILES IDX 7 13 8 14 13 15 9 16 12 17 10 18 11 19
REMARK H PARENT
REMARK Flexibility Score: inf
ROOT
ATOM      1  C   UNL     1      -1.355   1.624  -1.480  1.00  0.00     0.101 C 
ENDROOT
BRANCH   1   2
ATOM      2  C   UNL     1      -1.690   0.643  -2.680  1.00  0.00     0.201 C 
ATOM      3  Cl  UNL     1      -3.442   0.465  -3.022  1.00  0.00    -0.083 Cl
ATOM      4  Cl  UNL     1      -1.077  -1.019  -2.286  1.00  0.00    -0.083 Cl
ATOM      5  Cl  UNL     1      -0.862   1.126  -4.209  1.00  0.00    -0.083 Cl
ENDBRANCH   1   2
BRANCH   1   6
ATOM      6  C   UNL     1      -1.903   3.005  -1.603  1.00  0.00    -0.036 A 
ATOM      7  C   UNL     1      -2.088   3.572  -2.864  1.00  0.00     0.006 A 
ATOM      8  C   UNL     1      -2.228   3.732  -0.457  1.00  0.00     0.006 A 
ATOM      9  C   UNL     1      -2.600   4.865  -2.979  1.00  0.00     0.021 A 
ATOM     10  C   UNL     1      -2.740   5.024  -0.572  1.00  0.00     0.021 A 
ATOM     11  C   UNL     1      -2.926   5.590  -1.833  1.00  0.00     0.041 A 
ATOM     12  Cl  UNL     1      -3.556   7.186  -1.975  1.00  0.00    -0.084 Cl
ENDBRANCH   1   6
BRANCH   1  13
ATOM     13  C   UNL     1       0.105   1.602  -0.961  1.00  0.00    -0.036 A 
ATOM     14  C   UNL     1       0.370   0.885   0.173  1.00  0.00     0.006 A 
ATOM     15  C   UNL     1       1.044   2.301  -1.665  1.00  0.00     0.006 A 
ATOM     16  C   UNL     1       1.683   0.867   0.641  1.00  0.00     0.021 A 
ATOM     17  C   UNL     1       2.358   2.283  -1.197  1.00  0.00     0.021 A 
ATOM     18  C   UNL     1       2.678   1.566  -0.044  1.00  0.00     0.041 A 
ATOM     19  Cl  UNL     1       4.299   1.544   0.533  1.00  0.00    -0.084 Cl
ENDBRANCH   1  13
TORSDOF 3
ENDMDL
MODEL 2
REMARK VINA RESULT:    -6.502      0.090      1.599
REMARK INTER + INTRA:          -8.251
REMARK INTER:                  -7.645
REMARK INTRA:                  -0.606
REMARK UNBOUND:                -0.608
REMARK SMILES Clc1ccc(C(c2ccc(Cl)cc2)C(Cl)(Cl)Cl)cc1
REMARK SMILES IDX 6 1 14 2 15 3 16 4 17 5 5 6 4 7 18 8 3 9 19 10 2 11 1 12
REMARK SMILES IDX 7 13 8 14 13 15 9 16 12 17 10 18 11 19
REMARK H PARENT
REMARK Flexibility Score: inf
ROOT
ATOM      1  C   UNL     1      -1.360   1.642  -1.494  1.00  0.00     0.101 C 
ENDROOT
BRANCH   1   2
ATOM      2  C   UNL     1      -1.684   0.666  -2.702  1.00  0.00     0.201 C 
ATOM      3  Cl  UNL     1      -0.966   1.166  -4.268  1.00  0.00    -0.083 Cl
ATOM      4  Cl  UNL     1      -3.479   0.608  -2.961  1.00  0.00    -0.083 Cl
ATOM      5  Cl  UNL     1      -1.177  -1.032  -2.364  1.00  0.00    -0.083 Cl
ENDBRANCH   1   2
BRANCH   1   6
ATOM      6  C   UNL     1      -1.889   3.030  -1.626  1.00  0.00    -0.036 A 
ATOM      7  C   UNL     1      -2.298   3.730  -0.491  1.00  0.00     0.006 A 
ATOM      8  C   UNL     1      -1.977   3.628  -2.883  1.00  0.00     0.006 A 
ATOM      9  C   UNL     1      -2.795   5.028  -0.613  1.00  0.00     0.021 A 
ATOM     10  C   UNL     1      -2.472   4.925  -3.006  1.00  0.00     0.021 A 
ATOM     11  C   UNL     1      -2.881   5.626  -1.871  1.00  0.00     0.041 A 
ATOM     12  Cl  UNL     1      -3.494   7.227  -2.023  1.00  0.00    -0.084 Cl
ENDBRANCH   1   6
BRANCH   1  13
ATOM     13  C   UNL     1       0.090   1.602  -0.948  1.00  0.00    -0.036 A 
ATOM     14  C   UNL     1       0.333   0.853   0.169  1.00  0.00     0.006 A 
ATOM     15  C   UNL     1       1.044   2.320  -1.615  1.00  0.00     0.006 A 
ATOM     16  C   UNL     1       1.637   0.820   0.661  1.00  0.00     0.021 A 
ATOM     17  C   UNL     1       2.348   2.286  -1.122  1.00  0.00     0.021 A 
ATOM     18  C   UNL     1       2.645   1.535   0.015  1.00  0.00     0.041 A 
ATOM     19  Cl  UNL     1       4.255   1.494   0.622  1.00  0.00    -0.084 Cl
ENDBRANCH   1  13
TORSDOF 3
ENDMDL
MODEL 3
REMARK VINA RESULT:    -6.405      2.337      4.653
REMARK INTER + INTRA:          -8.136
REMARK INTER:                  -7.565
REMARK INTRA:                  -0.571
REMARK UNBOUND:                -0.608
REMARK SMILES Clc1ccc(C(c2ccc(Cl)cc2)C(Cl)(Cl)Cl)cc1
REMARK SMILES IDX 6 1 14 2 15 3 16 4 17 5 5 6 4 7 18 8 3 9 19 10 2 11 1 12
REMARK SMILES IDX 7 13 8 14 13 15 9 16 12 17 10 18 11 19
REMARK H PARENT
REMARK Flexibility Score: inf
ROOT
ATOM      1  C   UNL     1      -0.090   1.465  -1.678  1.00  0.00     0.101 C 
ENDROOT
BRANCH   1   2
ATOM      2  C   UNL     1       0.257   0.898  -0.238  1.00  0.00     0.201 C 
ATOM      3  Cl  UNL     1      -0.829   1.480   1.066  1.00  0.00    -0.083 Cl
ATOM      4  Cl  UNL     1       1.932   1.420   0.225  1.00  0.00    -0.083 Cl
ATOM      5  Cl  UNL     1       0.271  -0.906  -0.199  1.00  0.00    -0.083 Cl
ENDBRANCH   1   2
BRANCH   1   6
ATOM      6  C   UNL     1      -0.008   2.947  -1.825  1.00  0.00    -0.036 A 
ATOM      7  C   UNL     1       0.665   3.503  -2.913  1.00  0.00     0.006 A 
ATOM      8  C   UNL     1      -0.602   3.777  -0.874  1.00  0.00     0.006 A 
ATOM      9  C   UNL     1       0.743   4.889  -3.050  1.00  0.00     0.021 A 
ATOM     10  C   UNL     1      -0.525   5.163  -1.011  1.00  0.00     0.021 A 
ATOM     11  C   UNL     1       0.148   5.719  -2.099  1.00  0.00     0.041 A 
ATOM     12  Cl  UNL     1       0.244   7.429  -2.268  1.00  0.00    -0.084 Cl
ENDBRANCH   1   6
BRANCH   1  13
ATOM     13  C   UNL     1      -1.336   0.862  -2.373  1.00  0.00    -0.036 A 
ATOM     14  C   UNL     1      -2.562   1.364  -2.037  1.00  0.00     0.006 A 
ATOM     15  C   UNL     1      -1.139  -0.140  -3.281  1.00  0.00     0.006 A 
ATOM     16  C   UNL     1      -3.684   0.820  -2.662  1.00  0.00     0.021 A 
ATOM     17  C   UNL     1      -2.261  -0.685  -3.905  1.00  0.00     0.021 A 
ATOM     18  C   UNL     1      -3.534  -0.205  -3.596  1.00  0.00     0.041 A 
ATOM     19  Cl  UNL     1      -4.918  -0.878  -4.367  1.00  0.00    -0.084 Cl
ENDBRANCH   1  13
TORSDOF 3
ENDMDL
MODEL 4
REMARK VINA RESULT:    -6.375      2.330      4.679
REMARK INTER + INTRA:          -8.101
REMARK INTER:                  -7.541
REMARK INTRA:                  -0.560
REMARK UNBOUND:                -0.608
REMARK SMILES Clc1ccc(C(c2ccc(Cl)cc2)C(Cl)(Cl)Cl)cc1
REMARK SMILES IDX 6 1 14 2 15 3 16 4 17 5 5 6 4 7 18 8 3 9 19 10 2 11 1 12
REMARK SMILES IDX 7 13 8 14 13 15 9 16 12 17 10 18 11 19
REMARK H PARENT
REMARK Flexibility Score: inf
ROOT
ATOM      1  C   UNL     1      -0.176   1.573  -1.735  1.00  0.00     0.101 C 
ENDROOT
BRANCH   1   2
ATOM      2  C   UNL     1       0.221   1.048  -0.292  1.00  0.00     0.201 C 
ATOM      3  Cl  UNL     1       1.877   1.502   0.228  1.00  0.00    -0.083 Cl
ATOM      4  Cl  UNL     1       0.162  -0.765  -0.275  1.00  0.00    -0.083 Cl
ATOM      5  Cl  UNL     1      -0.940   1.594   0.977  1.00  0.00    -0.083 Cl
ENDBRANCH   1   2
BRANCH   1   6
ATOM      6  C   UNL     1      -0.110   3.050  -1.925  1.00  0.00    -0.036 A 
ATOM      7  C   UNL     1       0.407   3.579  -3.108  1.00  0.00     0.006 A 
ATOM      8  C   UNL     1      -0.564   3.905  -0.919  1.00  0.00     0.006 A 
ATOM      9  C   UNL     1       0.469   4.961  -3.286  1.00  0.00     0.021 A 
ATOM     10  C   UNL     1      -0.502   5.287  -1.097  1.00  0.00     0.021 A 
ATOM     11  C   UNL     1       0.015   5.815  -2.280  1.00  0.00     0.041 A 
ATOM     12  Cl  UNL     1       0.092   7.520  -2.499  1.00  0.00    -0.084 Cl
ENDBRANCH   1   6
BRANCH   1  13
ATOM     13  C   UNL     1      -1.440   0.942  -2.372  1.00  0.00    -0.036 A 
ATOM     14  C   UNL     1      -2.659   1.427  -1.990  1.00  0.00     0.006 A 
ATOM     15  C   UNL     1      -1.263  -0.065  -3.279  1.00  0.00     0.006 A 
ATOM     16  C   UNL     1      -3.796   0.857  -2.563  1.00  0.00     0.021 A 
ATOM     17  C   UNL     1      -2.401  -0.635  -3.851  1.00  0.00     0.021 A 
ATOM     18  C   UNL     1      -3.667  -0.173  -3.494  1.00  0.00     0.041 A 
ATOM     19  Cl  UNL     1      -5.071  -0.876  -4.200  1.00  0.00    -0.084 Cl
ENDBRANCH   1  13
TORSDOF 3
ENDMDL
MODEL 5
REMARK VINA RESULT:    -6.083      1.193      5.521
REMARK INTER + INTRA:          -7.758
REMARK INTER:                  -7.109
REMARK INTRA:                  -0.649
REMARK UNBOUND:                -0.608
REMARK SMILES Clc1ccc(C(c2ccc(Cl)cc2)C(Cl)(Cl)Cl)cc1
REMARK SMILES IDX 6 1 14 2 15 3 16 4 17 5 5 6 4 7 18 8 3 9 19 10 2 11 1 12
REMARK SMILES IDX 7 13 8 14 13 15 9 16 12 17 10 18 11 19
REMARK H PARENT
REMARK Flexibility Score: inf
ROOT
ATOM      1  C   UNL     1      -1.520   2.662  -2.475  1.00  0.00     0.101 C 
ENDROOT
BRANCH   1   2
ATOM      2  C   UNL     1      -2.682   1.606  -2.699  1.00  0.00     0.201 C 
ATOM      3  Cl  UNL     1      -2.145  -0.104  -2.652  1.00  0.00    -0.083 Cl
ATOM      4  Cl  UNL     1      -3.420   1.863  -4.337  1.00  0.00    -0.083 Cl
ATOM      5  Cl  UNL     1      -4.027   1.809  -1.513  1.00  0.00    -0.083 Cl
ENDBRANCH   1   2
BRANCH   1   6
ATOM      6  C   UNL     1      -0.437   2.241  -1.541  1.00  0.00    -0.036 A 
ATOM      7  C   UNL     1       0.898   2.473  -1.871  1.00  0.00     0.006 A 
ATOM      8  C   UNL     1      -0.759   1.615  -0.336  1.00  0.00     0.006 A 
ATOM      9  C   UNL     1       1.912   2.078  -0.997  1.00  0.00     0.021 A 
ATOM     10  C   UNL     1       0.254   1.221   0.538  1.00  0.00     0.021 A 
ATOM     11  C   UNL     1       1.589   1.453   0.207  1.00  0.00     0.041 A 
ATOM     12  Cl  UNL     1       2.840   0.965   1.285  1.00  0.00    -0.084 Cl
ENDBRANCH   1   6
BRANCH   1  13
ATOM     13  C   UNL     1      -1.959   4.133  -2.262  1.00  0.00    -0.036 A 
ATOM     14  C   UNL     1      -2.179   4.902  -3.370  1.00  0.00     0.006 A 
ATOM     15  C   UNL     1      -2.099   4.578  -0.977  1.00  0.00     0.006 A 
ATOM     16  C   UNL     1      -2.572   6.226  -3.177  1.00  0.00     0.021 A 
ATOM     17  C   UNL     1      -2.491   5.903  -0.785  1.00  0.00     0.021 A 
ATOM     18  C   UNL     1      -2.729   6.726  -1.885  1.00  0.00     0.041 A 
ATOM     19  Cl  UNL     1      -3.213   8.361  -1.647  1.00  0.00    -0.084 Cl
ENDBRANCH   1  13
TORSDOF 3
ENDMDL
