MODEL 1
REMARK VINA RESULT:    -6.587      0.000      0.000
REMARK INTER + INTRA:         -12.439
REMARK INTER:                  -9.282
REMARK INTRA:                  -3.156
REMARK UNBOUND:                -3.156
REMARK SMILES CC1(C)[C@H](C=C(Cl)Cl)[C@H]1C(=O)OCc1cccc(Oc2ccccc2)c1
REMARK SMILES IDX 13 1 12 2 10 3 11 4 9 5 4 6 2 7 1 8 3 9 5 10 7 11 6 12 8 13
REMARK SMILES IDX 14 14 26 15 15 16 18 17 16 18 17 19 19 20 20 21 21 22 25 23
REMARK SMILES IDX 22 24 24 25 23 26
REMARK H PARENT
REMARK Flexibility Score: inf
ROOT
ATOM      1  C   UNL     1      -0.491   6.840  -3.278  1.00  0.00     0.268 C 
ENDROOT
BRANCH   1   2
ATOM      2  O   UNL     1      -0.300   5.464  -2.972  1.00  0.00    -0.461 OA
BRANCH   2   3
ATOM      3  C   UNL     1      -0.009   5.180  -1.669  1.00  0.00     0.310 C 
ATOM      4  O   UNL     1       0.618   5.887  -0.892  1.00  0.00    -0.252 OA
BRANCH   3   5
ATOM      5  C   UNL     1      -0.554   3.863  -1.255  1.00  0.00     0.113 C 
ATOM      6  C   UNL     1      -1.717   3.306  -2.014  1.00  0.00     0.035 C 
ATOM      7  C   UNL     1      -1.896   3.779  -0.601  1.00  0.00    -0.014 C 
ATOM      8  C   UNL     1      -2.141   2.743   0.444  1.00  0.00     0.012 C 
ATOM      9  C   UNL     1      -2.603   5.065  -0.333  1.00  0.00     0.012 C 
BRANCH   6  10
ATOM     10  C   UNL     1      -1.722   1.883  -2.321  1.00  0.00     0.011 C 
ATOM     11  Cl  UNL     1       0.160   2.060  -4.241  1.00  0.00    -0.071 Cl
ATOM     12  C   UNL     1      -0.980   1.240  -3.235  1.00  0.00     0.103 C 
ATOM     13  Cl  UNL     1      -1.141  -0.468  -3.448  1.00  0.00    -0.071 Cl
ENDBRANCH   6  10
ENDBRANCH   3   5
ENDBRANCH   2   3
ENDBRANCH   1   2
BRANCH   1  14
ATOM     14  C   UNL     1      -1.932   7.189  -3.113  1.00  0.00    -0.007 A 
ATOM     15  C   UNL     1      -2.916   6.370  -3.667  1.00  0.00     0.054 A 
ATOM     16  C   UNL     1      -2.294   8.334  -2.404  1.00  0.00     0.007 A 
ATOM     17  C   UNL     1      -4.263   6.698  -3.512  1.00  0.00     0.127 A 
ATOM     18  C   UNL     1      -3.641   8.662  -2.250  1.00  0.00     0.004 A 
ATOM     19  C   UNL     1      -4.625   7.843  -2.804  1.00  0.00     0.047 A 
BRANCH  17  20
ATOM     20  O   UNL     1      -5.223   5.899  -4.052  1.00  0.00    -0.457 OA
BRANCH  20  21
ATOM     21  C   UNL     1      -5.238   4.566  -3.680  1.00  0.00     0.127 A 
ATOM     22  C   UNL     1      -5.551   4.235  -2.373  1.00  0.00     0.047 A 
ATOM     23  C   UNL     1      -4.938   3.599  -4.621  1.00  0.00     0.047 A 
ATOM     24  C   UNL     1      -5.566   2.893  -1.997  1.00  0.00     0.004 A 
ATOM     25  C   UNL     1      -4.953   2.255  -4.245  1.00  0.00     0.004 A 
ATOM     26  C   UNL     1      -5.268   1.903  -2.933  1.00  0.00     0.000 A 
ENDBRANCH  20  21
ENDBRANCH  17  20
ENDBRANCH   1  14
TORSDOF 7
ENDMDL
MODEL 2
REMARK VINA RESULT:    -6.515      3.381      5.408
REMARK INTER + INTRA:         -12.337
REMARK INTER:                 -10.237
REMARK INTRA:                  -2.100
REMARK UNBOUND:                -3.156
REMARK SMILES CC1(C)[C@H](C=C(Cl)Cl)[C@H]1C(=O)OCc1cccc(Oc2ccccc2)c1
REMARK SMILES IDX 13 1 12 2 10 3 11 4 9 5 4 6 2 7 1 8 3 9 5 10 7 11 6 12 8 13
REMARK SMILES IDX 14 14 26 15 15 16 18 17 16 18 17 19 19 20 20 21 21 22 25 23
REMARK SMILES IDX 22 24 24 25 23 26
REMARK H PARENT
REMARK Flexibility Score: inf
ROOT
ATOM      1  C   UNL     1      -2.779   3.634   0.110  1.00  0.00     0.268 C 
ENDROOT
BRANCH   1   2
ATOM      2  O   UNL     1      -2.373   4.981  -0.097  1.00  0.00    -0.461 OA
BRANCH   2   3
ATOM      3  C   UNL     1      -1.236   5.153  -0.831  1.00  0.00     0.310 C 
ATOM      4  O   UNL     1      -0.217   4.479  -0.765  1.00  0.00    -0.252 OA
BRANCH   3   5
ATOM      5  C   UNL     1      -1.352   6.295  -1.773  1.00  0.00     0.113 C 
ATOM      6  C   UNL     1      -2.699   6.607  -2.345  1.00  0.00     0.035 C 
ATOM      7  C   UNL     1      -1.619   6.045  -3.224  1.00  0.00    -0.014 C 
ATOM      8  C   UNL     1      -1.025   6.953  -4.247  1.00  0.00     0.012 C 
ATOM      9  C   UNL     1      -1.690   4.622  -3.667  1.00  0.00     0.012 C 
BRANCH   6  10
ATOM     10  C   UNL     1      -3.090   8.004  -2.462  1.00  0.00     0.011 C 
ATOM     11  Cl  UNL     1      -5.699   7.473  -2.879  1.00  0.00    -0.071 Cl
ATOM     12  C   UNL     1      -4.320   8.494  -2.686  1.00  0.00     0.103 C 
ATOM     13  Cl  UNL     1      -4.575  10.201  -2.793  1.00  0.00    -0.071 Cl
ENDBRANCH   6  10
ENDBRANCH   3   5
ENDBRANCH   2   3
ENDBRANCH   1   2
BRANCH   1  14
ATOM     14  C   UNL     1      -3.757   3.242  -0.945  1.00  0.00    -0.007 A 
ATOM     15  C   UNL     1      -4.847   4.066  -1.226  1.00  0.00     0.054 A 
ATOM     16  C   UNL     1      -3.582   2.052  -1.651  1.00  0.00     0.007 A 
ATOM     17  C   UNL     1      -5.761   3.699  -2.213  1.00  0.00     0.127 A 
ATOM     18  C   UNL     1      -4.497   1.685  -2.638  1.00  0.00     0.004 A 
ATOM     19  C   UNL     1      -5.586   2.509  -2.919  1.00  0.00     0.047 A 
BRANCH  17  20
ATOM     20  O   UNL     1      -6.825   4.503  -2.488  1.00  0.00    -0.457 OA
BRANCH  20  21
ATOM     21  C   UNL     1      -7.851   4.554  -1.560  1.00  0.00     0.127 A 
ATOM     22  C   UNL     1      -8.538   3.393  -1.251  1.00  0.00     0.047 A 
ATOM     23  C   UNL     1      -8.162   5.763  -0.965  1.00  0.00     0.047 A 
ATOM     24  C   UNL     1      -9.571   3.445  -0.317  1.00  0.00     0.004 A 
ATOM     25  C   UNL     1      -9.196   5.813  -0.029  1.00  0.00     0.004 A 
ATOM     26  C   UNL     1      -9.900   4.654   0.295  1.00  0.00     0.000 A 
ENDBRANCH  20  21
ENDBRANCH  17  20
ENDBRANCH   1  14
TORSDOF 7
ENDMDL
MODEL 3
REMARK VINA RESULT:    -6.282      2.264      4.467
REMARK INTER + INTRA:         -12.009
REMARK INTER:                  -9.782
REMARK INTRA:                  -2.227
REMARK UNBOUND:                -3.156
REMARK SMILES CC1(C)[C@H](C=C(Cl)Cl)[C@H]1C(=O)OCc1cccc(Oc2ccccc2)c1
REMARK SMILES IDX 13 1 12 2 10 3 11 4 9 5 4 6 2 7 1 8 3 9 5 10 7 11 6 12 8 13
REMARK SMILES IDX 14 14 26 15 15 16 18 17 16 18 17 19 19 20 20 21 21 22 25 23
REMARK SMILES IDX 22 24 24 25 23 26
REMARK H PARENT
REMARK Flexibility Score: inf
ROOT
ATOM      1  C   UNL     1      -4.404   1.967  -4.221  1.00  0.00     0.268 C 
ENDROOT
BRANCH   1   2
ATOM      2  O   UNL     1      -3.026   2.000  -3.870  1.00  0.00    -0.461 OA
BRANCH   2   3
ATOM      3  C   UNL     1      -2.723   1.560  -2.615  1.00  0.00     0.310 C 
ATOM      4  O   UNL     1      -3.263   0.641  -2.014  1.00  0.00    -0.252 OA
BRANCH   3   5
ATOM      5  C   UNL     1      -1.613   2.338  -2.008  1.00  0.00     0.113 C 
ATOM      6  C   UNL     1      -1.303   2.121  -0.561  1.00  0.00     0.035 C 
ATOM      7  C   UNL     1      -1.910   3.417  -1.015  1.00  0.00    -0.014 C 
ATOM      8  C   UNL     1      -1.046   4.632  -0.971  1.00  0.00     0.012 C 
ATOM      9  C   UNL     1      -3.346   3.703  -0.731  1.00  0.00     0.012 C 
BRANCH   6  10
ATOM     10  C   UNL     1       0.094   2.064  -0.157  1.00  0.00     0.011 C 
ATOM     11  Cl  UNL     1       0.239  -0.626  -0.227  1.00  0.00    -0.071 Cl
ATOM     12  C   UNL     1       0.852   0.970   0.018  1.00  0.00     0.103 C 
ATOM     13  Cl  UNL     1       2.503   1.119   0.508  1.00  0.00    -0.071 Cl
ENDBRANCH   6  10
ENDBRANCH   3   5
ENDBRANCH   2   3
ENDBRANCH   1   2
BRANCH   1  14
ATOM     14  C   UNL     1      -5.082   3.182  -3.686  1.00  0.00    -0.007 A 
ATOM     15  C   UNL     1      -4.620   4.451  -4.037  1.00  0.00     0.054 A 
ATOM     16  C   UNL     1      -6.180   3.050  -2.835  1.00  0.00     0.007 A 
ATOM     17  C   UNL     1      -5.255   5.587  -3.536  1.00  0.00     0.127 A 
ATOM     18  C   UNL     1      -6.814   4.186  -2.334  1.00  0.00     0.004 A 
ATOM     19  C   UNL     1      -6.352   5.455  -2.685  1.00  0.00     0.047 A 
BRANCH  17  20
ATOM     20  O   UNL     1      -4.804   6.825  -3.878  1.00  0.00    -0.457 OA
BRANCH  20  21
ATOM     21  C   UNL     1      -3.588   7.234  -3.358  1.00  0.00     0.127 A 
ATOM     22  C   UNL     1      -3.525   7.652  -2.040  1.00  0.00     0.047 A 
ATOM     23  C   UNL     1      -2.468   7.216  -4.168  1.00  0.00     0.047 A 
ATOM     24  C   UNL     1      -2.301   8.064  -1.517  1.00  0.00     0.004 A 
ATOM     25  C   UNL     1      -1.243   7.628  -3.643  1.00  0.00     0.004 A 
ATOM     26  C   UNL     1      -1.159   8.051  -2.317  1.00  0.00     0.000 A 
ENDBRANCH  20  21
ENDBRANCH  17  20
ENDBRANCH   1  14
TORSDOF 7
ENDMDL
MODEL 4
REMARK VINA RESULT:    -6.274      2.585      5.149
REMARK INTER + INTRA:         -11.998
REMARK INTER:                  -9.856
REMARK INTRA:                  -2.143
REMARK UNBOUND:                -3.156
REMARK SMILES CC1(C)[C@H](C=C(Cl)Cl)[C@H]1C(=O)OCc1cccc(Oc2ccccc2)c1
REMARK SMILES IDX 13 1 12 2 10 3 11 4 9 5 4 6 2 7 1 8 3 9 5 10 7 11 6 12 8 13
REMARK SMILES IDX 14 14 26 15 15 16 18 17 16 18 17 19 19 20 20 21 21 22 25 23
REMARK SMILES IDX 22 24 24 25 23 26
REMARK H PARENT
REMARK Flexibility Score: inf
ROOT
ATOM      1  C   UNL     1       0.967   3.344  -1.539  1.00  0.00     0.268 C 
ENDROOT
BRANCH   1   2
ATOM      2  O   UNL     1       0.148   4.346  -2.128  1.00  0.00    -0.461 OA
BRANCH   2   3
ATOM      3  C   UNL     1      -0.004   5.492  -1.402  1.00  0.00     0.310 C 
ATOM      4  O   UNL     1       0.859   6.059  -0.747  1.00  0.00    -0.252 OA
BRANCH   3   5
ATOM      5  C   UNL     1      -1.390   6.019  -1.485  1.00  0.00     0.113 C 
ATOM      6  C   UNL     1      -2.227   5.632  -2.663  1.00  0.00     0.035 C 
ATOM      7  C   UNL     1      -1.741   7.044  -2.516  1.00  0.00    -0.014 C 
ATOM      8  C   UNL     1      -2.756   8.089  -2.196  1.00  0.00     0.012 C 
ATOM      9  C   UNL     1      -0.635   7.542  -3.384  1.00  0.00     0.012 C 
BRANCH   6  10
ATOM     10  C   UNL     1      -3.628   5.307  -2.436  1.00  0.00     0.011 C 
ATOM     11  Cl  UNL     1      -3.120   2.948  -1.236  1.00  0.00    -0.071 Cl
ATOM     12  C   UNL     1      -4.128   4.210  -1.847  1.00  0.00     0.103 C 
ATOM     13  Cl  UNL     1      -5.838   4.012  -1.677  1.00  0.00    -0.071 Cl
ENDBRANCH   6  10
ENDBRANCH   3   5
ENDBRANCH   2   3
ENDBRANCH   1   2
BRANCH   1  14
ATOM     14  C   UNL     1       0.336   2.007  -1.739  1.00  0.00    -0.007 A 
ATOM     15  C   UNL     1      -0.276   1.700  -2.954  1.00  0.00     0.054 A 
ATOM     16  C   UNL     1       0.361   1.064  -0.712  1.00  0.00     0.007 A 
ATOM     17  C   UNL     1      -0.865   0.450  -3.141  1.00  0.00     0.127 A 
ATOM     18  C   UNL     1      -0.229  -0.186  -0.899  1.00  0.00     0.004 A 
ATOM     19  C   UNL     1      -0.841  -0.493  -2.114  1.00  0.00     0.047 A 
BRANCH  17  20
ATOM     20  O   UNL     1      -1.462   0.150  -4.327  1.00  0.00    -0.457 OA
BRANCH  20  21
ATOM     21  C   UNL     1      -2.841   0.250  -4.397  1.00  0.00     0.127 A 
ATOM     22  C   UNL     1      -3.421   1.503  -4.497  1.00  0.00     0.047 A 
ATOM     23  C   UNL     1      -3.604  -0.902  -4.365  1.00  0.00     0.047 A 
ATOM     24  C   UNL     1      -4.809   1.605  -4.567  1.00  0.00     0.004 A 
ATOM     25  C   UNL     1      -4.994  -0.799  -4.436  1.00  0.00     0.004 A 
ATOM     26  C   UNL     1      -5.596   0.455  -4.538  1.00  0.00     0.000 A 
ENDBRANCH  20  21
ENDBRANCH  17  20
ENDBRANCH   1  14
TORSDOF 7
ENDMDL
MODEL 5
REMARK VINA RESULT:    -6.186     13.927     17.414
REMARK INTER + INTRA:         -11.874
REMARK INTER:                 -10.793
REMARK INTRA:                  -1.081
REMARK UNBOUND:                -3.156
REMARK SMILES CC1(C)[C@H](C=C(Cl)Cl)[C@H]1C(=O)OCc1cccc(Oc2ccccc2)c1
REMARK SMILES IDX 13 1 12 2 10 3 11 4 9 5 4 6 2 7 1 8 3 9 5 10 7 11 6 12 8 13
REMARK SMILES IDX 14 14 26 15 15 16 18 17 16 18 17 19 19 20 20 21 21 22 25 23
REMARK SMILES IDX 22 24 24 25 23 26
REMARK H PARENT
REMARK Flexibility Score: inf
ROOT
ATOM      1  C   UNL     1       3.270  -4.681  10.383  1.00  0.00     0.268 C 
ENDROOT
BRANCH   1   2
ATOM      2  O   UNL     1       2.559  -5.830   9.938  1.00  0.00    -0.461 OA
BRANCH   2   3
ATOM      3  C   UNL     1       1.474  -5.588   9.147  1.00  0.00     0.310 C 
ATOM      4  O   UNL     1       0.600  -6.388   8.845  1.00  0.00    -0.252 OA
BRANCH   3   5
ATOM      5  C   UNL     1       1.446  -4.185   8.660  1.00  0.00     0.113 C 
ATOM      6  C   UNL     1       0.207  -3.695   7.981  1.00  0.00     0.035 C 
ATOM      7  C   UNL     1       1.466  -3.902   7.191  1.00  0.00    -0.014 C 
ATOM      8  C   UNL     1       2.168  -2.686   6.687  1.00  0.00     0.012 C 
ATOM      9  C   UNL     1       1.582  -5.073   6.274  1.00  0.00     0.012 C 
BRANCH   6  10
ATOM     10  C   UNL     1      -0.259  -2.349   8.285  1.00  0.00     0.011 C 
ATOM     11  Cl  UNL     1      -2.655  -3.148   9.225  1.00  0.00    -0.071 Cl
ATOM     12  C   UNL     1      -1.441  -1.992   8.810  1.00  0.00     0.103 C 
ATOM     13  Cl  UNL     1      -1.803  -0.325   9.093  1.00  0.00    -0.071 Cl
ENDBRANCH   6  10
ENDBRANCH   3   5
ENDBRANCH   2   3
ENDBRANCH   1   2
BRANCH   1  14
ATOM     14  C   UNL     1       4.730  -4.882  10.157  1.00  0.00    -0.007 A 
ATOM     15  C   UNL     1       5.193  -6.083   9.620  1.00  0.00     0.054 A 
ATOM     16  C   UNL     1       5.632  -3.868  10.481  1.00  0.00     0.007 A 
ATOM     17  C   UNL     1       6.559  -6.270   9.408  1.00  0.00     0.127 A 
ATOM     18  C   UNL     1       6.997  -4.056  10.270  1.00  0.00     0.004 A 
ATOM     19  C   UNL     1       7.461  -5.258   9.733  1.00  0.00     0.047 A 
BRANCH  17  20
ATOM     20  O   UNL     1       7.012  -7.442   8.884  1.00  0.00    -0.457 OA
BRANCH  20  21
ATOM     21  C   UNL     1       7.742  -7.384   7.710  1.00  0.00     0.127 A 
ATOM     22  C   UNL     1       7.194  -6.750   6.608  1.00  0.00     0.047 A 
ATOM     23  C   UNL     1       8.998  -7.959   7.666  1.00  0.00     0.047 A 
ATOM     24  C   UNL     1       7.929  -6.691   5.424  1.00  0.00     0.004 A 
ATOM     25  C   UNL     1       9.733  -7.899   6.481  1.00  0.00     0.004 A 
ATOM     26  C   UNL     1       9.198  -7.264   5.361  1.00  0.00     0.000 A 
ENDBRANCH  20  21
ENDBRANCH  17  20
ENDBRANCH   1  14
TORSDOF 7
ENDMDL
