MODEL 1
REMARK VINA RESULT:    -6.541      0.000      0.000
REMARK INTER + INTRA:          -8.286
REMARK INTER:                  -7.688
REMARK INTRA:                  -0.597
REMARK UNBOUND:                -0.597
REMARK SMILES Clc1ccc(C(c2ccc(Cl)cc2)C(Cl)(Cl)Cl)cc1
REMARK SMILES IDX 6 1 14 2 15 3 16 4 17 5 5 6 4 7 18 8 3 9 19 10 2 11 1 12
REMARK SMILES IDX 7 13 8 14 13 15 9 16 12 17 10 18 11 19
REMARK H PARENT
REMARK Flexibility Score: inf
ROOT
ATOM      1  C   UNL     1      -1.386   1.622  -1.448  1.00  0.00     0.101 C 
ENDROOT
BRANCH   1   2
ATOM      2  C   UNL     1      -1.739   0.631  -2.634  1.00  0.00     0.201 C 
ATOM      3  Cl  UNL     1      -3.497   0.399  -2.904  1.00  0.00    -0.083 Cl
ATOM      4  Cl  UNL     1      -1.061  -1.012  -2.266  1.00  0.00    -0.083 Cl
ATOM      5  Cl  UNL     1      -0.989   1.138  -4.195  1.00  0.00    -0.083 Cl
ENDBRANCH   1   2
BRANCH   1   6
ATOM      6  C   UNL     1      -1.941   3.001  -1.571  1.00  0.00    -0.036 A 
ATOM      7  C   UNL     1      -2.185   3.543  -2.832  1.00  0.00     0.006 A 
ATOM      8  C   UNL     1      -2.215   3.748  -0.425  1.00  0.00     0.006 A 
ATOM      9  C   UNL     1      -2.703   4.833  -2.948  1.00  0.00     0.021 A 
ATOM     10  C   UNL     1      -2.734   5.037  -0.541  1.00  0.00     0.021 A 
ATOM     11  C   UNL     1      -2.978   5.580  -1.802  1.00  0.00     0.041 A 
ATOM     12  Cl  UNL     1      -3.617   7.172  -1.945  1.00  0.00    -0.084 Cl
ENDBRANCH   1   6
BRANCH   1  13
ATOM     13  C   UNL     1       0.083   1.609  -0.955  1.00  0.00    -0.036 A 
ATOM     14  C   UNL     1       0.372   0.902   0.178  1.00  0.00     0.006 A 
ATOM     15  C   UNL     1       1.007   2.307  -1.681  1.00  0.00     0.006 A 
ATOM     16  C   UNL     1       1.694   0.892   0.622  1.00  0.00     0.021 A 
ATOM     17  C   UNL     1       2.329   2.298  -1.237  1.00  0.00     0.021 A 
ATOM     18  C   UNL     1       2.673   1.590  -0.086  1.00  0.00     0.041 A 
ATOM     19  Cl  UNL     1       4.305   1.579   0.462  1.00  0.00    -0.084 Cl
ENDBRANCH   1  13
TORSDOF 3
ENDMDL
MODEL 2
REMARK VINA RESULT:    -6.511      0.124      1.607
REMARK INTER + INTRA:          -8.251
REMARK INTER:                  -7.647
REMARK INTRA:                  -0.603
REMARK UNBOUND:                -0.597
REMARK SMILES Clc1ccc(C(c2ccc(Cl)cc2)C(Cl)(Cl)Cl)cc1
REMARK SMILES IDX 6 1 14 2 15 3 16 4 17 5 5 6 4 7 18 8 3 9 19 10 2 11 1 12
REMARK SMILES IDX 7 13 8 14 13 15 9 16 12 17 10 18 11 19
REMARK H PARENT
REMARK Flexibility Score: inf
ROOT
ATOM      1  C   UNL     1      -1.379   1.657  -1.517  1.00  0.00     0.101 C 
ENDROOT
BRANCH   1   2
ATOM      2  C   UNL     1      -1.723   0.691  -2.727  1.00  0.00     0.201 C 
ATOM      3  Cl  UNL     1      -1.053   1.215  -4.305  1.00  0.00    -0.083 Cl
ATOM      4  Cl  UNL     1      -3.523   0.613  -2.939  1.00  0.00    -0.083 Cl
ATOM      5  Cl  UNL     1      -1.187  -1.005  -2.420  1.00  0.00    -0.083 Cl
ENDBRANCH   1   2
BRANCH   1   6
ATOM      6  C   UNL     1      -1.909   3.047  -1.630  1.00  0.00    -0.036 A 
ATOM      7  C   UNL     1      -2.032   3.646  -2.883  1.00  0.00     0.006 A 
ATOM      8  C   UNL     1      -2.281   3.747  -0.483  1.00  0.00     0.006 A 
ATOM      9  C   UNL     1      -2.528   4.946  -2.989  1.00  0.00     0.021 A 
ATOM     10  C   UNL     1      -2.777   5.046  -0.588  1.00  0.00     0.021 A 
ATOM     11  C   UNL     1      -2.900   5.646  -1.841  1.00  0.00     0.041 A 
ATOM     12  Cl  UNL     1      -3.511   7.250  -1.972  1.00  0.00    -0.084 Cl
ENDBRANCH   1   6
BRANCH   1  13
ATOM     13  C   UNL     1       0.079   1.613  -0.995  1.00  0.00    -0.036 A 
ATOM     14  C   UNL     1       1.027   2.318  -1.683  1.00  0.00     0.006 A 
ATOM     15  C   UNL     1       0.335   0.871   0.124  1.00  0.00     0.006 A 
ATOM     16  C   UNL     1       2.339   2.276  -1.213  1.00  0.00     0.021 A 
ATOM     17  C   UNL     1       1.648   0.829   0.593  1.00  0.00     0.021 A 
ATOM     18  C   UNL     1       2.650   1.532  -0.075  1.00  0.00     0.041 A 
ATOM     19  Cl  UNL     1       4.270   1.480   0.505  1.00  0.00    -0.084 Cl
ENDBRANCH   1  13
TORSDOF 3
ENDMDL
MODEL 3
REMARK VINA RESULT:    -6.415      2.350      4.659
REMARK INTER + INTRA:          -8.138
REMARK INTER:                  -7.548
REMARK INTRA:                  -0.590
REMARK UNBOUND:                -0.597
REMARK SMILES Clc1ccc(C(c2ccc(Cl)cc2)C(Cl)(Cl)Cl)cc1
REMARK SMILES IDX 6 1 14 2 15 3 16 4 17 5 5 6 4 7 18 8 3 9 19 10 2 11 1 12
REMARK SMILES IDX 7 13 8 14 13 15 9 16 12 17 10 18 11 19
REMARK H PARENT
REMARK Flexibility Score: inf
ROOT
ATOM      1  C   UNL     1      -0.217   1.507  -1.711  1.00  0.00     0.101 C 
ENDROOT
BRANCH   1   2
ATOM      2  C   UNL     1       0.158   0.963  -0.269  1.00  0.00     0.201 C 
ATOM      3  Cl  UNL     1      -0.918   1.544   1.042  1.00  0.00    -0.083 Cl
ATOM      4  Cl  UNL     1       1.831   1.515   0.164  1.00  0.00    -0.083 Cl
ATOM      5  Cl  UNL     1       0.200  -0.840  -0.210  1.00  0.00    -0.083 Cl
ENDBRANCH   1   2
BRANCH   1   6
ATOM      6  C   UNL     1      -0.142   2.987  -1.882  1.00  0.00    -0.036 A 
ATOM      7  C   UNL     1       0.434   3.528  -3.031  1.00  0.00     0.006 A 
ATOM      8  C   UNL     1      -0.647   3.831  -0.892  1.00  0.00     0.006 A 
ATOM      9  C   UNL     1       0.505   4.912  -3.191  1.00  0.00     0.021 A 
ATOM     10  C   UNL     1      -0.576   5.214  -1.051  1.00  0.00     0.021 A 
ATOM     11  C   UNL     1       0.000   5.755  -2.201  1.00  0.00     0.041 A 
ATOM     12  Cl  UNL     1       0.088   7.463  -2.397  1.00  0.00    -0.084 Cl
ENDBRANCH   1   6
BRANCH   1  13
ATOM     13  C   UNL     1      -1.475   0.890  -2.373  1.00  0.00    -0.036 A 
ATOM     14  C   UNL     1      -2.695   1.401  -2.029  1.00  0.00     0.006 A 
ATOM     15  C   UNL     1      -1.292  -0.131  -3.263  1.00  0.00     0.006 A 
ATOM     16  C   UNL     1      -3.826   0.844  -2.625  1.00  0.00     0.021 A 
ATOM     17  C   UNL     1      -2.424  -0.688  -3.858  1.00  0.00     0.021 A 
ATOM     18  C   UNL     1      -3.692  -0.200  -3.539  1.00  0.00     0.041 A 
ATOM     19  Cl  UNL     1      -5.088  -0.888  -4.274  1.00  0.00    -0.084 Cl
ENDBRANCH   1  13
TORSDOF 3
ENDMDL
MODEL 4
REMARK VINA RESULT:    -6.088      1.234      5.516
REMARK INTER + INTRA:          -7.753
REMARK INTER:                  -7.108
REMARK INTRA:                  -0.645
REMARK UNBOUND:                -0.597
REMARK SMILES Clc1ccc(C(c2ccc(Cl)cc2)C(Cl)(Cl)Cl)cc1
REMARK SMILES IDX 6 1 14 2 15 3 16 4 17 5 5 6 4 7 18 8 3 9 19 10 2 11 1 12
REMARK SMILES IDX 7 13 8 14 13 15 9 16 12 17 10 18 11 19
REMARK H PARENT
REMARK Flexibility Score: inf
ROOT
ATOM      1  C   UNL     1      -1.555   2.671  -2.484  1.00  0.00     0.101 C 
ENDROOT
BRANCH   1   2
ATOM      2  C   UNL     1      -2.741   1.637  -2.683  1.00  0.00     0.201 C 
ATOM      3  Cl  UNL     1      -2.236  -0.084  -2.629  1.00  0.00    -0.083 Cl
ATOM      4  Cl  UNL     1      -3.495   1.895  -4.313  1.00  0.00    -0.083 Cl
ATOM      5  Cl  UNL     1      -4.065   1.876  -1.480  1.00  0.00    -0.083 Cl
ENDBRANCH   1   2
BRANCH   1   6
ATOM      6  C   UNL     1      -0.474   2.242  -1.551  1.00  0.00    -0.036 A 
ATOM      7  C   UNL     1       0.862   2.469  -1.881  1.00  0.00     0.006 A 
ATOM      8  C   UNL     1      -0.798   1.611  -0.349  1.00  0.00     0.006 A 
ATOM      9  C   UNL     1       1.874   2.067  -1.009  1.00  0.00     0.021 A 
ATOM     10  C   UNL     1       0.213   1.210   0.523  1.00  0.00     0.021 A 
ATOM     11  C   UNL     1       1.549   1.437   0.193  1.00  0.00     0.041 A 
ATOM     12  Cl  UNL     1       2.798   0.940   1.269  1.00  0.00    -0.084 Cl
ENDBRANCH   1   6
BRANCH   1  13
ATOM     13  C   UNL     1      -1.961   4.154  -2.290  1.00  0.00    -0.036 A 
ATOM     14  C   UNL     1      -2.175   4.910  -3.408  1.00  0.00     0.006 A 
ATOM     15  C   UNL     1      -2.081   4.621  -1.011  1.00  0.00     0.006 A 
ATOM     16  C   UNL     1      -2.539   6.245  -3.232  1.00  0.00     0.021 A 
ATOM     17  C   UNL     1      -2.444   5.957  -0.835  1.00  0.00     0.021 A 
ATOM     18  C   UNL     1      -2.674   6.768  -1.946  1.00  0.00     0.041 A 
ATOM     19  Cl  UNL     1      -3.122   8.416  -1.729  1.00  0.00    -0.084 Cl
ENDBRANCH   1  13
TORSDOF 3
ENDMDL
MODEL 5
REMARK VINA RESULT:    -6.064      2.114      4.176
REMARK INTER + INTRA:          -7.725
REMARK INTER:                  -7.083
REMARK INTRA:                  -0.643
REMARK UNBOUND:                -0.597
REMARK SMILES Clc1ccc(C(c2ccc(Cl)cc2)C(Cl)(Cl)Cl)cc1
REMARK SMILES IDX 6 1 14 2 15 3 16 4 17 5 5 6 4 7 18 8 3 9 19 10 2 11 1 12
REMARK SMILES IDX 7 13 8 14 13 15 9 16 12 17 10 18 11 19
REMARK H PARENT
REMARK Flexibility Score: inf
ROOT
ATOM      1  C   UNL     1      -2.012   3.177  -1.995  1.00  0.00     0.101 C 
ENDROOT
BRANCH   1   2
ATOM      2  C   UNL     1      -2.787   4.359  -1.275  1.00  0.00     0.201 C 
ATOM      3  Cl  UNL     1      -3.777   3.846   0.129  1.00  0.00    -0.083 Cl
ATOM      4  Cl  UNL     1      -3.933   5.130  -2.452  1.00  0.00    -0.083 Cl
ATOM      5  Cl  UNL     1      -1.676   5.674  -0.733  1.00  0.00    -0.083 Cl
ENDBRANCH   1   2
BRANCH   1   6
ATOM      6  C   UNL     1      -2.870   2.130  -2.622  1.00  0.00    -0.036 A 
ATOM      7  C   UNL     1      -3.958   1.610  -1.922  1.00  0.00     0.006 A 
ATOM      8  C   UNL     1      -2.583   1.671  -3.907  1.00  0.00     0.006 A 
ATOM      9  C   UNL     1      -4.760   0.630  -2.508  1.00  0.00     0.021 A 
ATOM     10  C   UNL     1      -3.384   0.691  -4.493  1.00  0.00     0.021 A 
ATOM     11  C   UNL     1      -4.473   0.171  -3.794  1.00  0.00     0.041 A 
ATOM     12  Cl  UNL     1      -5.462  -1.038  -4.516  1.00  0.00    -0.084 Cl
ENDBRANCH   1   6
BRANCH   1  13
ATOM     13  C   UNL     1      -0.802   2.582  -1.231  1.00  0.00    -0.036 A 
ATOM     14  C   UNL     1      -1.053   1.848  -0.107  1.00  0.00     0.006 A 
ATOM     15  C   UNL     1       0.449   2.828  -1.726  1.00  0.00     0.006 A 
ATOM     16  C   UNL     1       0.036   1.315   0.581  1.00  0.00     0.021 A 
ATOM     17  C   UNL     1       1.539   2.294  -1.037  1.00  0.00     0.021 A 
ATOM     18  C   UNL     1       1.332   1.537   0.116  1.00  0.00     0.041 A 
ATOM     19  Cl  UNL     1       2.677   0.879   0.965  1.00  0.00    -0.084 Cl
ENDBRANCH   1  13
TORSDOF 3
ENDMDL
