MODEL 1
REMARK VINA RESULT:    -5.905      0.000      0.000
REMARK INTER + INTRA:          -7.564
REMARK INTER:                  -6.941
REMARK INTRA:                  -0.623
REMARK UNBOUND:                -0.623
REMARK SMILES Clc1ccc(C(c2ccc(Cl)cc2)C(Cl)(Cl)Cl)cc1
REMARK SMILES IDX 6 1 14 2 15 3 16 4 17 5 5 6 4 7 18 8 3 9 19 10 2 11 1 12
REMARK SMILES IDX 7 13 8 14 13 15 9 16 12 17 10 18 11 19
REMARK H PARENT
REMARK Flexibility Score: inf
ROOT
ATOM      1  C   UNL     1      -1.380   1.988  -1.305  1.00  0.00     0.101 C 
ENDROOT
BRANCH   1   2
ATOM      2  C   UNL     1      -1.815   1.129  -2.566  1.00  0.00     0.201 C 
ATOM      3  Cl  UNL     1      -1.146   1.714  -4.124  1.00  0.00    -0.083 Cl
ATOM      4  Cl  UNL     1      -3.621   1.183  -2.735  1.00  0.00    -0.083 Cl
ATOM      5  Cl  UNL     1      -1.386  -0.614  -2.386  1.00  0.00    -0.083 Cl
ENDBRANCH   1   2
BRANCH   1   6
ATOM      6  C   UNL     1      -1.810   3.416  -1.318  1.00  0.00    -0.036 A 
ATOM      7  C   UNL     1      -1.869   4.115  -2.522  1.00  0.00     0.006 A 
ATOM      8  C   UNL     1      -2.151   4.052  -0.124  1.00  0.00     0.006 A 
ATOM      9  C   UNL     1      -2.270   5.452  -2.534  1.00  0.00     0.021 A 
ATOM     10  C   UNL     1      -2.553   5.388  -0.135  1.00  0.00     0.021 A 
ATOM     11  C   UNL     1      -2.612   6.088  -1.340  1.00  0.00     0.041 A 
ATOM     12  Cl  UNL     1      -3.106   7.736  -1.354  1.00  0.00    -0.084 Cl
ENDBRANCH   1   6
BRANCH   1  13
ATOM     13  C   UNL     1       0.080   1.805  -0.819  1.00  0.00    -0.036 A 
ATOM     14  C   UNL     1       0.289   1.069   0.313  1.00  0.00     0.006 A 
ATOM     15  C   UNL     1       1.075   2.393  -1.549  1.00  0.00     0.006 A 
ATOM     16  C   UNL     1       1.603   0.906   0.751  1.00  0.00     0.021 A 
ATOM     17  C   UNL     1       2.389   2.230  -1.110  1.00  0.00     0.021 A 
ATOM     18  C   UNL     1       2.653   1.487   0.040  1.00  0.00     0.041 A 
ATOM     19  Cl  UNL     1       4.275   1.287   0.581  1.00  0.00    -0.084 Cl
ENDBRANCH   1  13
TORSDOF 3
ENDMDL
MODEL 2
REMARK VINA RESULT:    -5.892      2.221      4.641
REMARK INTER + INTRA:          -7.549
REMARK INTER:                  -7.048
REMARK INTRA:                  -0.501
REMARK UNBOUND:                -0.623
REMARK SMILES Clc1ccc(C(c2ccc(Cl)cc2)C(Cl)(Cl)Cl)cc1
REMARK SMILES IDX 6 1 14 2 15 3 16 4 17 5 5 6 4 7 18 8 3 9 19 10 2 11 1 12
REMARK SMILES IDX 7 13 8 14 13 15 9 16 12 17 10 18 11 19
REMARK H PARENT
REMARK Flexibility Score: inf
ROOT
ATOM      1  C   UNL     1      -0.028   1.470  -1.590  1.00  0.00     0.101 C 
ENDROOT
BRANCH   1   2
ATOM      2  C   UNL     1       0.357   0.871  -0.173  1.00  0.00     0.201 C 
ATOM      3  Cl  UNL     1      -0.632   1.495   1.187  1.00  0.00    -0.083 Cl
ATOM      4  Cl  UNL     1       2.078   1.299   0.212  1.00  0.00    -0.083 Cl
ATOM      5  Cl  UNL     1       0.278  -0.932  -0.148  1.00  0.00    -0.083 Cl
ENDBRANCH   1   2
BRANCH   1   6
ATOM      6  C   UNL     1       0.032   2.956  -1.700  1.00  0.00    -0.036 A 
ATOM      7  C   UNL     1       0.906   3.553  -2.609  1.00  0.00     0.006 A 
ATOM      8  C   UNL     1      -0.784   3.750  -0.894  1.00  0.00     0.006 A 
ATOM      9  C   UNL     1       0.963   4.943  -2.712  1.00  0.00     0.021 A 
ATOM     10  C   UNL     1      -0.728   5.139  -0.997  1.00  0.00     0.021 A 
ATOM     11  C   UNL     1       0.146   5.736  -1.905  1.00  0.00     0.041 A 
ATOM     12  Cl  UNL     1       0.217   7.451  -2.032  1.00  0.00    -0.084 Cl
ENDBRANCH   1   6
BRANCH   1  13
ATOM     13  C   UNL     1      -1.282   0.868  -2.273  1.00  0.00    -0.036 A 
ATOM     14  C   UNL     1      -2.509   1.281  -1.836  1.00  0.00     0.006 A 
ATOM     15  C   UNL     1      -1.089  -0.043  -3.274  1.00  0.00     0.006 A 
ATOM     16  C   UNL     1      -3.637   0.738  -2.450  1.00  0.00     0.021 A 
ATOM     17  C   UNL     1      -2.218  -0.586  -3.887  1.00  0.00     0.021 A 
ATOM     18  C   UNL     1      -3.492  -0.195  -3.476  1.00  0.00     0.041 A 
ATOM     19  Cl  UNL     1      -4.884  -0.866  -4.234  1.00  0.00    -0.084 Cl
ENDBRANCH   1  13
TORSDOF 3
ENDMDL
MODEL 3
REMARK VINA RESULT:    -5.790      4.131      5.599
REMARK INTER + INTRA:          -7.429
REMARK INTER:                  -6.795
REMARK INTRA:                  -0.634
REMARK UNBOUND:                -0.623
REMARK SMILES Clc1ccc(C(c2ccc(Cl)cc2)C(Cl)(Cl)Cl)cc1
REMARK SMILES IDX 6 1 14 2 15 3 16 4 17 5 5 6 4 7 18 8 3 9 19 10 2 11 1 12
REMARK SMILES IDX 7 13 8 14 13 15 9 16 12 17 10 18 11 19
REMARK H PARENT
REMARK Flexibility Score: inf
ROOT
ATOM      1  C   UNL     1      -4.602   4.525  -2.439  1.00  0.00     0.101 C 
ENDROOT
BRANCH   1   2
ATOM      2  C   UNL     1      -5.924   5.247  -2.933  1.00  0.00     0.201 C 
ATOM      3  Cl  UNL     1      -5.917   7.028  -2.718  1.00  0.00    -0.083 Cl
ATOM      4  Cl  UNL     1      -7.339   4.625  -1.982  1.00  0.00    -0.083 Cl
ATOM      5  Cl  UNL     1      -6.294   4.888  -4.662  1.00  0.00    -0.083 Cl
ENDBRANCH   1   2
BRANCH   1   6
ATOM      6  C   UNL     1      -3.367   5.361  -2.449  1.00  0.00    -0.036 A 
ATOM      7  C   UNL     1      -2.532   5.384  -1.333  1.00  0.00     0.006 A 
ATOM      8  C   UNL     1      -3.048   6.121  -3.575  1.00  0.00     0.006 A 
ATOM      9  C   UNL     1      -1.377   6.167  -1.342  1.00  0.00     0.021 A 
ATOM     10  C   UNL     1      -1.894   6.903  -3.585  1.00  0.00     0.021 A 
ATOM     11  C   UNL     1      -1.058   6.926  -2.468  1.00  0.00     0.041 A 
ATOM     12  Cl  UNL     1       0.366   7.893  -2.479  1.00  0.00    -0.084 Cl
ENDBRANCH   1   6
BRANCH   1  13
ATOM     13  C   UNL     1      -4.360   3.091  -2.976  1.00  0.00    -0.036 A 
ATOM     14  C   UNL     1      -5.006   2.058  -2.356  1.00  0.00     0.006 A 
ATOM     15  C   UNL     1      -3.513   2.941  -4.038  1.00  0.00     0.006 A 
ATOM     16  C   UNL     1      -4.787   0.769  -2.839  1.00  0.00     0.021 A 
ATOM     17  C   UNL     1      -3.293   1.650  -4.519  1.00  0.00     0.021 A 
ATOM     18  C   UNL     1      -3.930   0.564  -3.920  1.00  0.00     0.041 A 
ATOM     19  Cl  UNL     1      -3.659  -1.028  -4.515  1.00  0.00    -0.084 Cl
ENDBRANCH   1  13
TORSDOF 3
ENDMDL
MODEL 4
REMARK VINA RESULT:    -5.789      2.756      3.966
REMARK INTER + INTRA:          -7.427
REMARK INTER:                  -6.837
REMARK INTRA:                  -0.590
REMARK UNBOUND:                -0.623
REMARK SMILES Clc1ccc(C(c2ccc(Cl)cc2)C(Cl)(Cl)Cl)cc1
REMARK SMILES IDX 6 1 14 2 15 3 16 4 17 5 5 6 4 7 18 8 3 9 19 10 2 11 1 12
REMARK SMILES IDX 7 13 8 14 13 15 9 16 12 17 10 18 11 19
REMARK H PARENT
REMARK Flexibility Score: inf
ROOT
ATOM      1  C   UNL     1      -2.428   4.695  -1.788  1.00  0.00     0.101 C 
ENDROOT
BRANCH   1   2
ATOM      2  C   UNL     1      -3.487   3.524  -1.940  1.00  0.00     0.201 C 
ATOM      3  Cl  UNL     1      -5.133   3.938  -1.363  1.00  0.00    -0.083 Cl
ATOM      4  Cl  UNL     1      -2.948   2.096  -0.958  1.00  0.00    -0.083 Cl
ATOM      5  Cl  UNL     1      -3.615   2.935  -3.641  1.00  0.00    -0.083 Cl
ENDBRANCH   1   2
BRANCH   1   6
ATOM      6  C   UNL     1      -2.949   6.071  -2.027  1.00  0.00    -0.036 A 
ATOM      7  C   UNL     1      -2.424   7.149  -1.315  1.00  0.00     0.006 A 
ATOM      8  C   UNL     1      -3.963   6.281  -2.963  1.00  0.00     0.006 A 
ATOM      9  C   UNL     1      -2.912   8.437  -1.538  1.00  0.00     0.021 A 
ATOM     10  C   UNL     1      -4.451   7.568  -3.186  1.00  0.00     0.021 A 
ATOM     11  C   UNL     1      -3.926   8.646  -2.474  1.00  0.00     0.041 A 
ATOM     12  Cl  UNL     1      -4.528  10.235  -2.749  1.00  0.00    -0.084 Cl
ENDBRANCH   1   6
BRANCH   1  13
ATOM     13  C   UNL     1      -1.042   4.457  -2.438  1.00  0.00    -0.036 A 
ATOM     14  C   UNL     1      -0.874   4.830  -3.742  1.00  0.00     0.006 A 
ATOM     15  C   UNL     1      -0.065   3.886  -1.670  1.00  0.00     0.006 A 
ATOM     16  C   UNL     1       0.373   4.615  -4.327  1.00  0.00     0.021 A 
ATOM     17  C   UNL     1       1.182   3.670  -2.256  1.00  0.00     0.021 A 
ATOM     18  C   UNL     1       1.402   4.035  -3.584  1.00  0.00     0.041 A 
ATOM     19  Cl  UNL     1       2.941   3.768  -4.306  1.00  0.00    -0.084 Cl
ENDBRANCH   1  13
TORSDOF 3
ENDMDL
MODEL 5
REMARK VINA RESULT:    -5.766      2.152      4.400
REMARK INTER + INTRA:          -7.401
REMARK INTER:                  -6.752
REMARK INTRA:                  -0.649
REMARK UNBOUND:                -0.623
REMARK SMILES Clc1ccc(C(c2ccc(Cl)cc2)C(Cl)(Cl)Cl)cc1
REMARK SMILES IDX 6 1 14 2 15 3 16 4 17 5 5 6 4 7 18 8 3 9 19 10 2 11 1 12
REMARK SMILES IDX 7 13 8 14 13 15 9 16 12 17 10 18 11 19
REMARK H PARENT
REMARK Flexibility Score: inf
ROOT
ATOM      1  C   UNL     1      -1.243   2.756  -1.739  1.00  0.00     0.101 C 
ENDROOT
BRANCH   1   2
ATOM      2  C   UNL     1      -1.794   4.206  -1.409  1.00  0.00     0.201 C 
ATOM      3  Cl  UNL     1      -3.072   4.242  -0.152  1.00  0.00    -0.083 Cl
ATOM      4  Cl  UNL     1      -2.530   4.923  -2.904  1.00  0.00    -0.083 Cl
ATOM      5  Cl  UNL     1      -0.480   5.339  -0.912  1.00  0.00    -0.083 Cl
ENDBRANCH   1   2
BRANCH   1   6
ATOM      6  C   UNL     1      -2.217   1.826  -2.379  1.00  0.00    -0.036 A 
ATOM      7  C   UNL     1      -3.467   1.617  -1.797  1.00  0.00     0.006 A 
ATOM      8  C   UNL     1      -1.877   1.163  -3.559  1.00  0.00     0.006 A 
ATOM      9  C   UNL     1      -4.378   0.746  -2.395  1.00  0.00     0.021 A 
ATOM     10  C   UNL     1      -2.788   0.293  -4.157  1.00  0.00     0.021 A 
ATOM     11  C   UNL     1      -4.038   0.084  -3.576  1.00  0.00     0.041 A 
ATOM     12  Cl  UNL     1      -5.162  -0.991  -4.313  1.00  0.00    -0.084 Cl
ENDBRANCH   1   6
BRANCH   1  13
ATOM     13  C   UNL     1      -0.399   2.073  -0.634  1.00  0.00    -0.036 A 
ATOM     14  C   UNL     1       0.906   1.777  -0.916  1.00  0.00     0.006 A 
ATOM     15  C   UNL     1      -1.007   1.804   0.560  1.00  0.00     0.006 A 
ATOM     16  C   UNL     1       1.664   1.161   0.079  1.00  0.00     0.021 A 
ATOM     17  C   UNL     1      -0.248   1.187   1.555  1.00  0.00     0.021 A 
ATOM     18  C   UNL     1       1.088   0.866   1.315  1.00  0.00     0.041 A 
ATOM     19  Cl  UNL     1       2.024   0.104   2.542  1.00  0.00    -0.084 Cl
ENDBRANCH   1  13
TORSDOF 3
ENDMDL
