MODEL 1
REMARK VINA RESULT:    -6.191      0.000      0.000
REMARK INTER + INTRA:          -7.654
REMARK INTER:                  -7.276
REMARK INTRA:                  -0.378
REMARK UNBOUND:                -0.378
REMARK SMILES Clc1ccc(C(c2ccc(Cl)cc2)C(Cl)(Cl)Cl)cc1
REMARK SMILES IDX 6 1 14 2 15 3 16 4 17 5 5 6 4 7 18 8 3 9 19 10 2 11 1 12
REMARK SMILES IDX 7 13 8 14 13 15 9 16 12 17 10 18 11 19
REMARK H PARENT
REMARK Flexibility Score: inf
ROOT
ATOM      1  C   UNL     1       0.057   1.339  -1.339  1.00  0.00     0.101 C 
ENDROOT
BRANCH   1   2
ATOM      2  C   UNL     1       0.384   0.769   0.105  1.00  0.00     0.201 C 
ATOM      3  Cl  UNL     1      -0.670   1.410   1.407  1.00  0.00    -0.083 Cl
ATOM      4  Cl  UNL     1       2.082   1.220   0.557  1.00  0.00    -0.083 Cl
ATOM      5  Cl  UNL     1       0.318  -1.033   0.159  1.00  0.00    -0.083 Cl
ENDBRANCH   1   2
BRANCH   1   6
ATOM      6  C   UNL     1       0.142   2.821  -1.482  1.00  0.00    -0.036 A 
ATOM      7  C   UNL     1       1.151   3.389  -2.259  1.00  0.00     0.006 A 
ATOM      8  C   UNL     1      -0.787   3.639  -0.838  1.00  0.00     0.006 A 
ATOM      9  C   UNL     1       1.232   4.776  -2.393  1.00  0.00     0.021 A 
ATOM     10  C   UNL     1      -0.707   5.025  -0.972  1.00  0.00     0.021 A 
ATOM     11  C   UNL     1       0.302   5.593  -1.749  1.00  0.00     0.041 A 
ATOM     12  Cl  UNL     1       0.402   7.304  -1.913  1.00  0.00    -0.084 Cl
ENDBRANCH   1   6
BRANCH   1  13
ATOM     13  C   UNL     1      -1.181   0.738  -2.051  1.00  0.00    -0.036 A 
ATOM     14  C   UNL     1      -0.982  -0.311  -2.904  1.00  0.00     0.006 A 
ATOM     15  C   UNL     1      -2.403   1.292  -1.787  1.00  0.00     0.006 A 
ATOM     16  C   UNL     1      -2.096  -0.850  -3.546  1.00  0.00     0.021 A 
ATOM     17  C   UNL     1      -3.517   0.753  -2.430  1.00  0.00     0.021 A 
ATOM     18  C   UNL     1      -3.364  -0.319  -3.309  1.00  0.00     0.041 A 
ATOM     19  Cl  UNL     1      -4.739  -0.984  -4.102  1.00  0.00    -0.084 Cl
ENDBRANCH   1  13
TORSDOF 3
ENDMDL
MODEL 2
REMARK VINA RESULT:    -6.111      2.215      4.756
REMARK INTER + INTRA:          -7.561
REMARK INTER:                  -6.950
REMARK INTRA:                  -0.611
REMARK UNBOUND:                -0.378
REMARK SMILES Clc1ccc(C(c2ccc(Cl)cc2)C(Cl)(Cl)Cl)cc1
REMARK SMILES IDX 6 1 14 2 15 3 16 4 17 5 5 6 4 7 18 8 3 9 19 10 2 11 1 12
REMARK SMILES IDX 7 13 8 14 13 15 9 16 12 17 10 18 11 19
REMARK H PARENT
REMARK Flexibility Score: inf
ROOT
ATOM      1  C   UNL     1      -1.392   1.970  -1.317  1.00  0.00     0.101 C 
ENDROOT
BRANCH   1   2
ATOM      2  C   UNL     1      -1.820   1.083  -2.561  1.00  0.00     0.201 C 
ATOM      3  Cl  UNL     1      -1.179   1.658  -4.134  1.00  0.00    -0.083 Cl
ATOM      4  Cl  UNL     1      -3.628   1.096  -2.713  1.00  0.00    -0.083 Cl
ATOM      5  Cl  UNL     1      -1.353  -0.648  -2.358  1.00  0.00    -0.083 Cl
ENDBRANCH   1   2
BRANCH   1   6
ATOM      6  C   UNL     1      -1.831   3.394  -1.359  1.00  0.00    -0.036 A 
ATOM      7  C   UNL     1      -2.152   4.059  -0.176  1.00  0.00     0.006 A 
ATOM      8  C   UNL     1      -1.923   4.061  -2.581  1.00  0.00     0.006 A 
ATOM      9  C   UNL     1      -2.565   5.392  -0.214  1.00  0.00     0.021 A 
ATOM     10  C   UNL     1      -2.334   5.394  -2.619  1.00  0.00     0.021 A 
ATOM     11  C   UNL     1      -2.655   6.058  -1.436  1.00  0.00     0.041 A 
ATOM     12  Cl  UNL     1      -3.164   7.702  -1.484  1.00  0.00    -0.084 Cl
ENDBRANCH   1   6
BRANCH   1  13
ATOM     13  C   UNL     1       0.069   1.807  -0.827  1.00  0.00    -0.036 A 
ATOM     14  C   UNL     1       1.059   2.399  -1.560  1.00  0.00     0.006 A 
ATOM     15  C   UNL     1       0.284   1.079   0.309  1.00  0.00     0.006 A 
ATOM     16  C   UNL     1       2.374   2.251  -1.119  1.00  0.00     0.021 A 
ATOM     17  C   UNL     1       1.600   0.930   0.750  1.00  0.00     0.021 A 
ATOM     18  C   UNL     1       2.644   1.517   0.036  1.00  0.00     0.041 A 
ATOM     19  Cl  UNL     1       4.267   1.333   0.580  1.00  0.00    -0.084 Cl
ENDBRANCH   1  13
TORSDOF 3
ENDMDL
MODEL 3
REMARK VINA RESULT:    -6.070      0.777      2.038
REMARK INTER + INTRA:          -7.513
REMARK INTER:                  -6.951
REMARK INTRA:                  -0.562
REMARK UNBOUND:                -0.378
REMARK SMILES Clc1ccc(C(c2ccc(Cl)cc2)C(Cl)(Cl)Cl)cc1
REMARK SMILES IDX 6 1 14 2 15 3 16 4 17 5 5 6 4 7 18 8 3 9 19 10 2 11 1 12
REMARK SMILES IDX 7 13 8 14 13 15 9 16 12 17 10 18 11 19
REMARK H PARENT
REMARK Flexibility Score: inf
ROOT
ATOM      1  C   UNL     1      -0.099   1.513  -1.974  1.00  0.00     0.101 C 
ENDROOT
BRANCH   1   2
ATOM      2  C   UNL     1       0.329   1.008  -0.534  1.00  0.00     0.201 C 
ATOM      3  Cl  UNL     1       2.036   1.354  -0.107  1.00  0.00    -0.083 Cl
ATOM      4  Cl  UNL     1       0.139  -0.795  -0.449  1.00  0.00    -0.083 Cl
ATOM      5  Cl  UNL     1      -0.727   1.678   0.767  1.00  0.00    -0.083 Cl
ENDBRANCH   1   2
BRANCH   1   6
ATOM      6  C   UNL     1      -0.023   2.987  -2.190  1.00  0.00    -0.036 A 
ATOM      7  C   UNL     1      -0.323   3.861  -1.146  1.00  0.00     0.006 A 
ATOM      8  C   UNL     1       0.345   3.491  -3.438  1.00  0.00     0.006 A 
ATOM      9  C   UNL     1      -0.253   5.239  -1.348  1.00  0.00     0.021 A 
ATOM     10  C   UNL     1       0.416   4.869  -3.640  1.00  0.00     0.021 A 
ATOM     11  C   UNL     1       0.117   5.743  -2.595  1.00  0.00     0.041 A 
ATOM     12  Cl  UNL     1       0.203   7.444  -2.845  1.00  0.00    -0.084 Cl
ENDBRANCH   1   6
BRANCH   1  13
ATOM     13  C   UNL     1      -1.385   0.885  -2.570  1.00  0.00    -0.036 A 
ATOM     14  C   UNL     1      -2.589   1.310  -2.082  1.00  0.00     0.006 A 
ATOM     15  C   UNL     1      -1.242  -0.058  -3.548  1.00  0.00     0.006 A 
ATOM     16  C   UNL     1      -3.746   0.743  -2.617  1.00  0.00     0.021 A 
ATOM     17  C   UNL     1      -2.399  -0.625  -4.082  1.00  0.00     0.021 A 
ATOM     18  C   UNL     1      -3.651  -0.224  -3.617  1.00  0.00     0.041 A 
ATOM     19  Cl  UNL     1      -5.078  -0.924  -4.277  1.00  0.00    -0.084 Cl
ENDBRANCH   1  13
TORSDOF 3
ENDMDL
MODEL 4
REMARK VINA RESULT:    -5.968      1.935      5.857
REMARK INTER + INTRA:          -7.393
REMARK INTER:                  -6.746
REMARK INTRA:                  -0.647
REMARK UNBOUND:                -0.378
REMARK SMILES Clc1ccc(C(c2ccc(Cl)cc2)C(Cl)(Cl)Cl)cc1
REMARK SMILES IDX 6 1 14 2 15 3 16 4 17 5 5 6 4 7 18 8 3 9 19 10 2 11 1 12
REMARK SMILES IDX 7 13 8 14 13 15 9 16 12 17 10 18 11 19
REMARK H PARENT
REMARK Flexibility Score: inf
ROOT
ATOM      1  C   UNL     1      -1.257   2.765  -1.732  1.00  0.00     0.101 C 
ENDROOT
BRANCH   1   2
ATOM      2  C   UNL     1      -1.826   4.204  -1.383  1.00  0.00     0.201 C 
ATOM      3  Cl  UNL     1      -3.078   4.210  -0.098  1.00  0.00    -0.083 Cl
ATOM      4  Cl  UNL     1      -2.607   4.915  -2.858  1.00  0.00    -0.083 Cl
ATOM      5  Cl  UNL     1      -0.522   5.357  -0.908  1.00  0.00    -0.083 Cl
ENDBRANCH   1   2
BRANCH   1   6
ATOM      6  C   UNL     1      -2.223   1.828  -2.376  1.00  0.00    -0.036 A 
ATOM      7  C   UNL     1      -3.473   1.610  -1.798  1.00  0.00     0.006 A 
ATOM      8  C   UNL     1      -1.874   1.168  -3.555  1.00  0.00     0.006 A 
ATOM      9  C   UNL     1      -4.376   0.732  -2.399  1.00  0.00     0.021 A 
ATOM     10  C   UNL     1      -2.777   0.291  -4.156  1.00  0.00     0.021 A 
ATOM     11  C   UNL     1      -4.027   0.073  -3.578  1.00  0.00     0.041 A 
ATOM     12  Cl  UNL     1      -5.141  -1.010  -4.320  1.00  0.00    -0.084 Cl
ENDBRANCH   1   6
BRANCH   1  13
ATOM     13  C   UNL     1      -0.396   2.082  -0.640  1.00  0.00    -0.036 A 
ATOM     14  C   UNL     1      -1.004   1.744   0.536  1.00  0.00     0.006 A 
ATOM     15  C   UNL     1       0.924   1.858  -0.915  1.00  0.00     0.006 A 
ATOM     16  C   UNL     1      -0.228   1.131   1.519  1.00  0.00     0.021 A 
ATOM     17  C   UNL     1       1.701   1.245   0.069  1.00  0.00     0.021 A 
ATOM     18  C   UNL     1       1.124   0.881   1.286  1.00  0.00     0.041 A 
ATOM     19  Cl  UNL     1       2.083   0.125   2.499  1.00  0.00    -0.084 Cl
ENDBRANCH   1  13
TORSDOF 3
ENDMDL
MODEL 5
REMARK VINA RESULT:    -5.928      3.861      5.304
REMARK INTER + INTRA:          -7.346
REMARK INTER:                  -6.777
REMARK INTRA:                  -0.569
REMARK UNBOUND:                -0.378
REMARK SMILES Clc1ccc(C(c2ccc(Cl)cc2)C(Cl)(Cl)Cl)cc1
REMARK SMILES IDX 6 1 14 2 15 3 16 4 17 5 5 6 4 7 18 8 3 9 19 10 2 11 1 12
REMARK SMILES IDX 7 13 8 14 13 15 9 16 12 17 10 18 11 19
REMARK H PARENT
REMARK Flexibility Score: inf
ROOT
ATOM      1  C   UNL     1      -4.595   4.518  -2.445  1.00  0.00     0.101 C 
ENDROOT
BRANCH   1   2
ATOM      2  C   UNL     1      -5.920   5.250  -2.917  1.00  0.00     0.201 C 
ATOM      3  Cl  UNL     1      -5.914   7.025  -2.662  1.00  0.00    -0.083 Cl
ATOM      4  Cl  UNL     1      -7.330   4.606  -1.973  1.00  0.00    -0.083 Cl
ATOM      5  Cl  UNL     1      -6.298   4.929  -4.652  1.00  0.00    -0.083 Cl
ENDBRANCH   1   2
BRANCH   1   6
ATOM      6  C   UNL     1      -3.361   5.356  -2.443  1.00  0.00    -0.036 A 
ATOM      7  C   UNL     1      -2.445   5.244  -1.397  1.00  0.00     0.006 A 
ATOM      8  C   UNL     1      -3.123   6.252  -3.485  1.00  0.00     0.006 A 
ATOM      9  C   UNL     1      -1.291   6.028  -1.394  1.00  0.00     0.021 A 
ATOM     10  C   UNL     1      -1.970   7.036  -3.483  1.00  0.00     0.021 A 
ATOM     11  C   UNL     1      -1.054   6.924  -2.437  1.00  0.00     0.041 A 
ATOM     12  Cl  UNL     1       0.370   7.892  -2.433  1.00  0.00    -0.084 Cl
ENDBRANCH   1   6
BRANCH   1  13
ATOM     13  C   UNL     1      -4.354   3.097  -3.015  1.00  0.00    -0.036 A 
ATOM     14  C   UNL     1      -4.918   2.040  -2.358  1.00  0.00     0.006 A 
ATOM     15  C   UNL     1      -3.589   2.982  -4.143  1.00  0.00     0.006 A 
ATOM     16  C   UNL     1      -4.699   0.762  -2.871  1.00  0.00     0.021 A 
ATOM     17  C   UNL     1      -3.370   1.703  -4.654  1.00  0.00     0.021 A 
ATOM     18  C   UNL     1      -3.926   0.593  -4.019  1.00  0.00     0.041 A 
ATOM     19  Cl  UNL     1      -3.655  -0.985  -4.651  1.00  0.00    -0.084 Cl
ENDBRANCH   1  13
TORSDOF 3
ENDMDL
