MODEL 1
REMARK VINA RESULT:    -6.944      0.000      0.000
REMARK INTER + INTRA:         -11.653
REMARK INTER:                 -10.191
REMARK INTRA:                  -1.461
REMARK UNBOUND:                -1.461
REMARK SMILES CC1(C)C(C=C(Br)Br)C1C(=O)OC(C#N)c1cccc(Oc2ccccc2)c1
REMARK SMILES IDX 13 1 12 2 10 3 11 4 9 5 4 6 2 7 1 8 3 9 5 10 7 11 6 12 8 13
REMARK SMILES IDX 16 14 28 15 17 16 20 17 18 18 19 19 21 20 22 21 23 22 27 23
REMARK SMILES IDX 24 24 26 25 25 26 14 27 15 28
REMARK H PARENT
REMARK Flexibility Score: inf
ROOT
ATOM      1  C   UNL     1      -4.207   1.448  -2.762  1.00  0.00     0.309 C
ENDROOT
BRANCH   1   2
ATOM      2  O   UNL     1      -2.884   1.568  -3.302  1.00  0.00    -0.442 OA
BRANCH   2   3
ATOM      3  C   UNL     1      -1.877   1.221  -2.456  1.00  0.00     0.311 C
ATOM      4  O   UNL     1      -1.647   0.110  -2.000  1.00  0.00    -0.252 OA
BRANCH   3   5
ATOM      5  C   UNL     1      -1.028   2.393  -2.115  1.00  0.00     0.113 C
ATOM      6  C   UNL     1      -0.178   2.320  -0.888  1.00  0.00     0.035 C
ATOM      7  C   UNL     1      -1.363   3.240  -0.930  1.00  0.00    -0.014 C
ATOM      8  C   UNL     1      -2.537   2.882  -0.080  1.00  0.00     0.012 C
ATOM      9  C   UNL     1      -1.153   4.711  -1.067  1.00  0.00     0.012 C
BRANCH   6  10
ATOM     10  C   UNL     1      -0.216   1.102  -0.092  1.00  0.00     0.001 C
ATOM     11  Br  UNL     1       2.535   1.210   0.617  1.00  0.00    -0.043 Br
ATOM     12  C   UNL     1       0.794   0.522   0.578  1.00  0.00     0.057 C
ATOM     13  Br  UNL     1       0.528  -1.059   1.551  1.00  0.00    -0.043 Br
ENDBRANCH   6  10
ENDBRANCH   3   5
ENDBRANCH   2   3
ENDBRANCH   1   2
BRANCH   1  14
ATOM     14  C   UNL     1      -4.919   2.753  -2.867  1.00  0.00     0.011 A
ATOM     15  C   UNL     1      -4.338   3.812  -3.564  1.00  0.00     0.055 A
ATOM     16  C   UNL     1      -6.169   2.914  -2.269  1.00  0.00     0.009 A
ATOM     17  C   UNL     1      -5.005   5.032  -3.663  1.00  0.00     0.127 A
ATOM     18  C   UNL     1      -6.836   4.136  -2.368  1.00  0.00     0.004 A
ATOM     19  C   UNL     1      -6.254   5.195  -3.064  1.00  0.00     0.047 A
BRANCH  17  20
ATOM     20  O   UNL     1      -4.437   6.067  -4.342  1.00  0.00    -0.457 OA
BRANCH  20  21
ATOM     21  C   UNL     1      -3.378   6.727  -3.741  1.00  0.00     0.127 A
ATOM     22  C   UNL     1      -2.139   6.710  -4.355  1.00  0.00     0.047 A
ATOM     23  C   UNL     1      -3.587   7.385  -2.542  1.00  0.00     0.047 A
ATOM     24  C   UNL     1      -1.072   7.375  -3.750  1.00  0.00     0.004 A
ATOM     25  C   UNL     1      -2.520   8.048  -1.937  1.00  0.00     0.004 A
ATOM     26  C   UNL     1      -1.263   8.045  -2.541  1.00  0.00     0.000 A
ENDBRANCH  20  21
ENDBRANCH  17  20
ENDBRANCH   1  14
BRANCH   1  27
ATOM     27  C   UNL     1      -4.919   0.354  -3.453  1.00  0.00     0.113 C
ATOM     28  N   UNL     1      -5.488  -0.503  -3.990  1.00  0.00    -0.194 NA
ENDBRANCH   1  27
TORSDOF 8
ENDMDL
MODEL 2
REMARK VINA RESULT:    -6.823      3.605      6.630
REMARK INTER + INTRA:         -11.476
REMARK INTER:                  -9.825
REMARK INTRA:                  -1.651
REMARK UNBOUND:                -1.461
REMARK SMILES CC1(C)C(C=C(Br)Br)C1C(=O)OC(C#N)c1cccc(Oc2ccccc2)c1
REMARK SMILES IDX 13 1 12 2 10 3 11 4 9 5 4 6 2 7 1 8 3 9 5 10 7 11 6 12 8 13
REMARK SMILES IDX 16 14 28 15 17 16 20 17 18 18 19 19 21 20 22 21 23 22 27 23
REMARK SMILES IDX 24 24 26 25 25 26 14 27 15 28
REMARK H PARENT
REMARK Flexibility Score: inf
ROOT
ATOM      1  C   UNL     1       1.628   3.829  -2.737  1.00  0.00     0.309 C
ENDROOT
BRANCH   1   2
ATOM      2  O   UNL     1       0.822   4.966  -3.074  1.00  0.00    -0.442 OA
BRANCH   2   3
ATOM      3  C   UNL     1       0.500   5.780  -2.033  1.00  0.00     0.311 C
ATOM      4  O   UNL     1       0.954   5.739  -0.898  1.00  0.00    -0.252 OA
BRANCH   3   5
ATOM      5  C   UNL     1      -0.521   6.785  -2.427  1.00  0.00     0.113 C
ATOM      6  C   UNL     1      -1.964   6.438  -2.251  1.00  0.00     0.035 C
ATOM      7  C   UNL     1      -1.379   6.549  -3.628  1.00  0.00    -0.014 C
ATOM      8  C   UNL     1      -1.220   5.286  -4.408  1.00  0.00     0.012 C
ATOM      9  C   UNL     1      -1.700   7.735  -4.475  1.00  0.00     0.012 C
BRANCH   6  10
ATOM     10  C   UNL     1      -2.300   5.137  -1.694  1.00  0.00     0.001 C
ATOM     11  Br  UNL     1      -4.963   5.144  -2.688  1.00  0.00    -0.043 Br
ATOM     12  C   UNL     1      -3.467   4.477  -1.781  1.00  0.00     0.057 C
ATOM     13  Br  UNL     1      -3.690   2.795  -0.983  1.00  0.00    -0.043 Br
ENDBRANCH   6  10
ENDBRANCH   3   5
ENDBRANCH   2   3
ENDBRANCH   1   2
BRANCH   1  14
ATOM     14  C   UNL     1       0.757   2.649  -2.471  1.00  0.00     0.011 A
ATOM     15  C   UNL     1       0.125   1.995  -3.529  1.00  0.00     0.055 A
ATOM     16  C   UNL     1       0.576   2.197  -1.164  1.00  0.00     0.009 A
ATOM     17  C   UNL     1      -0.689   0.891  -3.280  1.00  0.00     0.127 A
ATOM     18  C   UNL     1      -0.239   1.092  -0.916  1.00  0.00     0.004 A
ATOM     19  C   UNL     1      -0.871   0.439  -1.973  1.00  0.00     0.047 A
BRANCH  17  20
ATOM     20  O   UNL     1      -1.307   0.253  -4.312  1.00  0.00    -0.457 OA
BRANCH  20  21
ATOM     21  C   UNL     1      -2.689   0.314  -4.371  1.00  0.00     0.127 A
ATOM     22  C   UNL     1      -3.303   1.542  -4.537  1.00  0.00     0.047 A
ATOM     23  C   UNL     1      -3.421  -0.855  -4.261  1.00  0.00     0.047 A
ATOM     24  C   UNL     1      -4.696   1.604  -4.595  1.00  0.00     0.004 A
ATOM     25  C   UNL     1      -4.812  -0.793  -4.319  1.00  0.00     0.004 A
ATOM     26  C   UNL     1      -5.451   0.436  -4.487  1.00  0.00     0.000 A
ENDBRANCH  20  21
ENDBRANCH  17  20
ENDBRANCH   1  14
BRANCH   1  27
ATOM     27  C   UNL     1       2.604   3.583  -3.818  1.00  0.00     0.113 C
ATOM     28  N   UNL     1       3.377   3.397  -4.663  1.00  0.00    -0.194 NA
ENDBRANCH   1  27
TORSDOF 8
ENDMDL
MODEL 3
REMARK VINA RESULT:    -6.719      2.938      4.809
REMARK INTER + INTRA:         -11.322
REMARK INTER:                  -9.279
REMARK INTRA:                  -2.043
REMARK UNBOUND:                -1.461
REMARK SMILES CC1(C)C(C=C(Br)Br)C1C(=O)OC(C#N)c1cccc(Oc2ccccc2)c1
REMARK SMILES IDX 13 1 12 2 10 3 11 4 9 5 4 6 2 7 1 8 3 9 5 10 7 11 6 12 8 13
REMARK SMILES IDX 16 14 28 15 17 16 20 17 18 18 19 19 21 20 22 21 23 22 27 23
REMARK SMILES IDX 24 24 26 25 25 26 14 27 15 28
REMARK H PARENT
REMARK Flexibility Score: inf
ROOT
ATOM      1  C   UNL     1       0.600   3.085  -3.816  1.00  0.00     0.309 C
ENDROOT
BRANCH   1   2
ATOM      2  O   UNL     1      -0.043   2.069  -3.034  1.00  0.00    -0.442 OA
BRANCH   2   3
ATOM      3  C   UNL     1      -0.908   1.271  -3.715  1.00  0.00     0.311 C
ATOM      4  O   UNL     1      -0.715   0.123  -4.088  1.00  0.00    -0.252 OA
BRANCH   3   5
ATOM      5  C   UNL     1      -2.193   1.969  -3.980  1.00  0.00     0.113 C
ATOM      6  C   UNL     1      -3.022   2.398  -2.813  1.00  0.00     0.035 C
ATOM      7  C   UNL     1      -3.490   1.281  -3.698  1.00  0.00    -0.014 C
ATOM      8  C   UNL     1      -3.481  -0.097  -3.124  1.00  0.00     0.012 C
ATOM      9  C   UNL     1      -4.606   1.518  -4.661  1.00  0.00     0.012 C
BRANCH   6  10
ATOM     10  C   UNL     1      -2.526   2.121  -1.473  1.00  0.00     0.001 C
ATOM     11  Br  UNL     1      -2.906   4.777  -0.537  1.00  0.00    -0.043 Br
ATOM     12  C   UNL     1      -2.415   2.974  -0.441  1.00  0.00     0.057 C
ATOM     13  Br  UNL     1      -1.745   2.406   1.216  1.00  0.00    -0.043 Br
ENDBRANCH   6  10
ENDBRANCH   3   5
ENDBRANCH   2   3
ENDBRANCH   1   2
BRANCH   1  14
ATOM     14  C   UNL     1       0.342   4.426  -3.219  1.00  0.00     0.011 A
ATOM     15  C   UNL     1      -0.487   5.335  -3.877  1.00  0.00     0.055 A
ATOM     16  C   UNL     1       0.928   4.771  -2.001  1.00  0.00     0.009 A
ATOM     17  C   UNL     1      -0.728   6.589  -3.317  1.00  0.00     0.127 A
ATOM     18  C   UNL     1       0.687   6.026  -1.443  1.00  0.00     0.004 A
ATOM     19  C   UNL     1      -0.141   6.935  -2.100  1.00  0.00     0.047 A
BRANCH  17  20
ATOM     20  O   UNL     1      -1.536   7.478  -3.959  1.00  0.00    -0.457 OA
BRANCH  20  21
ATOM     21  C   UNL     1      -2.866   7.531  -3.575  1.00  0.00     0.127 A
ATOM     22  C   UNL     1      -3.319   8.627  -2.864  1.00  0.00     0.047 A
ATOM     23  C   UNL     1      -3.707   6.486  -3.914  1.00  0.00     0.047 A
ATOM     24  C   UNL     1      -4.658   8.681  -2.477  1.00  0.00     0.004 A
ATOM     25  C   UNL     1      -5.046   6.539  -3.527  1.00  0.00     0.004 A
ATOM     26  C   UNL     1      -5.522   7.637  -2.810  1.00  0.00     0.000 A
ENDBRANCH  20  21
ENDBRANCH  17  20
ENDBRANCH   1  14
BRANCH   1  27
ATOM     27  C   UNL     1       2.041   2.779  -3.926  1.00  0.00     0.113 C
ATOM     28  N   UNL     1       3.175   2.545  -4.004  1.00  0.00    -0.194 NA
ENDBRANCH   1  27
TORSDOF 8
ENDMDL
MODEL 4
REMARK VINA RESULT:    -6.669      3.014      6.440
REMARK INTER + INTRA:         -11.249
REMARK INTER:                 -10.559
REMARK INTRA:                  -0.690
REMARK UNBOUND:                -1.461
REMARK SMILES CC1(C)C(C=C(Br)Br)C1C(=O)OC(C#N)c1cccc(Oc2ccccc2)c1
REMARK SMILES IDX 13 1 12 2 10 3 11 4 9 5 4 6 2 7 1 8 3 9 5 10 7 11 6 12 8 13
REMARK SMILES IDX 16 14 28 15 17 16 20 17 18 18 19 19 21 20 22 21 23 22 27 23
REMARK SMILES IDX 24 24 26 25 25 26 14 27 15 28
REMARK H PARENT
REMARK Flexibility Score: inf
ROOT
ATOM      1  C   UNL     1      -4.061   1.147  -4.246  1.00  0.00     0.309 C
ENDROOT
BRANCH   1   2
ATOM      2  O   UNL     1      -4.536   2.237  -3.444  1.00  0.00    -0.442 OA
BRANCH   2   3
ATOM      3  C   UNL     1      -4.372   3.473  -3.989  1.00  0.00     0.311 C
ATOM      4  O   UNL     1      -3.429   3.863  -4.662  1.00  0.00    -0.252 OA
BRANCH   3   5
ATOM      5  C   UNL     1      -5.519   4.362  -3.668  1.00  0.00     0.113 C
ATOM      6  C   UNL     1      -5.230   5.723  -3.123  1.00  0.00     0.035 C
ATOM      7  C   UNL     1      -5.847   4.676  -2.243  1.00  0.00    -0.014 C
ATOM      8  C   UNL     1      -4.997   4.112  -1.153  1.00  0.00     0.012 C
ATOM      9  C   UNL     1      -7.292   4.768  -1.885  1.00  0.00     0.012 C
BRANCH   6  10
ATOM     10  C   UNL     1      -3.840   6.116  -2.942  1.00  0.00     0.001 C
ATOM     11  Br  UNL     1      -4.417   8.889  -2.703  1.00  0.00    -0.043 Br
ATOM     12  C   UNL     1      -3.348   7.353  -2.761  1.00  0.00     0.057 C
ATOM     13  Br  UNL     1      -1.508   7.641  -2.546  1.00  0.00    -0.043 Br
ENDBRANCH   6  10
ENDBRANCH   3   5
ENDBRANCH   2   3
ENDBRANCH   1   2
BRANCH   1  14
ATOM     14  C   UNL     1      -2.882   0.511  -3.593  1.00  0.00     0.011 A
ATOM     15  C   UNL     1      -2.029   1.275  -2.795  1.00  0.00     0.055 A
ATOM     16  C   UNL     1      -2.632  -0.849  -3.777  1.00  0.00     0.009 A
ATOM     17  C   UNL     1      -0.927   0.680  -2.184  1.00  0.00     0.127 A
ATOM     18  C   UNL     1      -1.528  -1.444  -3.165  1.00  0.00     0.004 A
ATOM     19  C   UNL     1      -0.675  -0.680  -2.369  1.00  0.00     0.047 A
BRANCH  17  20
ATOM     20  O   UNL     1      -0.093   1.425  -1.407  1.00  0.00    -0.457 OA
BRANCH  20  21
ATOM     21  C   UNL     1      -0.322   1.431  -0.041  1.00  0.00     0.127 A
ATOM     22  C   UNL     1      -1.438   2.083   0.452  1.00  0.00     0.047 A
ATOM     23  C   UNL     1       0.571   0.785   0.795  1.00  0.00     0.047 A
ATOM     24  C   UNL     1      -1.669   2.089   1.829  1.00  0.00     0.004 A
ATOM     25  C   UNL     1       0.341   0.793   2.170  1.00  0.00     0.004 A
ATOM     26  C   UNL     1      -0.779   1.443   2.688  1.00  0.00     0.000 A
ENDBRANCH  20  21
ENDBRANCH  17  20
ENDBRANCH   1  14
BRANCH   1  27
ATOM     27  C   UNL     1      -5.166   0.193  -4.477  1.00  0.00     0.113 C
ATOM     28  N   UNL     1      -6.027  -0.564  -4.654  1.00  0.00    -0.194 NA
ENDBRANCH   1  27
TORSDOF 8
ENDMDL
MODEL 5
REMARK VINA RESULT:    -6.668      2.117      4.245
REMARK INTER + INTRA:         -11.248
REMARK INTER:                 -10.447
REMARK INTRA:                  -0.801
REMARK UNBOUND:                -1.461
REMARK SMILES CC1(C)C(C=C(Br)Br)C1C(=O)OC(C#N)c1cccc(Oc2ccccc2)c1
REMARK SMILES IDX 13 1 12 2 10 3 11 4 9 5 4 6 2 7 1 8 3 9 5 10 7 11 6 12 8 13
REMARK SMILES IDX 16 14 28 15 17 16 20 17 18 18 19 19 21 20 22 21 23 22 27 23
REMARK SMILES IDX 24 24 26 25 25 26 14 27 15 28
REMARK H PARENT
REMARK Flexibility Score: inf
ROOT
ATOM      1  C   UNL     1      -4.316   1.723  -2.495  1.00  0.00     0.309 C
ENDROOT
BRANCH   1   2
ATOM      2  O   UNL     1      -2.987   1.909  -3.001  1.00  0.00    -0.442 OA
BRANCH   2   3
ATOM      3  C   UNL     1      -1.986   1.564  -2.147  1.00  0.00     0.311 C
ATOM      4  O   UNL     1      -1.742   0.448  -1.710  1.00  0.00    -0.252 OA
BRANCH   3   5
ATOM      5  C   UNL     1      -1.166   2.744  -1.769  1.00  0.00     0.113 C
ATOM      6  C   UNL     1      -0.319   2.655  -0.541  1.00  0.00     0.035 C
ATOM      7  C   UNL     1      -1.524   3.548  -0.560  1.00  0.00    -0.014 C
ATOM      8  C   UNL     1      -2.692   3.138   0.275  1.00  0.00     0.012 C
ATOM      9  C   UNL     1      -1.349   5.027  -0.653  1.00  0.00     0.012 C
BRANCH   6  10
ATOM     10  C   UNL     1      -0.330   1.414   0.219  1.00  0.00     0.001 C
ATOM     11  Br  UNL     1       2.499   1.263   0.448  1.00  0.00    -0.043 Br
ATOM     12  C   UNL     1       0.723   0.725   0.691  1.00  0.00     0.057 C
ATOM     13  Br  UNL     1       0.485  -0.866   1.655  1.00  0.00    -0.043 Br
ENDBRANCH   6  10
ENDBRANCH   3   5
ENDBRANCH   2   3
ENDBRANCH   1   2
BRANCH   1  14
ATOM     14  C   UNL     1      -5.066   3.010  -2.550  1.00  0.00     0.011 A
ATOM     15  C   UNL     1      -6.454   3.015  -2.413  1.00  0.00     0.055 A
ATOM     16  C   UNL     1      -4.379   4.209  -2.736  1.00  0.00     0.009 A
ATOM     17  C   UNL     1      -7.155   4.220  -2.464  1.00  0.00     0.127 A
ATOM     18  C   UNL     1      -5.080   5.414  -2.787  1.00  0.00     0.004 A
ATOM     19  C   UNL     1      -6.468   5.419  -2.651  1.00  0.00     0.047 A
BRANCH  17  20
ATOM     20  O   UNL     1      -8.510   4.226  -2.331  1.00  0.00    -0.457 OA
BRANCH  20  21
ATOM     21  C   UNL     1      -9.031   4.321  -1.051  1.00  0.00     0.127 A
ATOM     22  C   UNL     1      -9.766   3.266  -0.544  1.00  0.00     0.047 A
ATOM     23  C   UNL     1      -8.802   5.468  -0.313  1.00  0.00     0.047 A
ATOM     24  C   UNL     1     -10.292   3.360   0.746  1.00  0.00     0.004 A
ATOM     25  C   UNL     1      -9.327   5.564   0.975  1.00  0.00     0.004 A
ATOM     26  C   UNL     1     -10.071   4.510   1.505  1.00  0.00     0.000 A
ENDBRANCH  20  21
ENDBRANCH  17  20
ENDBRANCH   1  14
BRANCH   1  27
ATOM     27  C   UNL     1      -4.982   0.645  -3.254  1.00  0.00     0.113 C
ATOM     28  N   UNL     1      -5.506  -0.195  -3.859  1.00  0.00    -0.194 NA
ENDBRANCH   1  27
TORSDOF 8
ENDMDL
