MODEL 1
REMARK VINA RESULT:    -6.528      0.000      0.000
REMARK INTER + INTRA:          -8.275
REMARK INTER:                  -7.673
REMARK INTRA:                  -0.602
REMARK UNBOUND:                -0.602
REMARK SMILES Clc1ccc(C(c2ccc(Cl)cc2)C(Cl)(Cl)Cl)cc1
REMARK SMILES IDX 6 1 14 2 15 3 16 4 17 5 5 6 4 7 18 8 3 9 19 10 2 11 1 12
REMARK SMILES IDX 7 13 8 14 13 15 9 16 12 17 10 18 11 19
REMARK H PARENT
REMARK Flexibility Score: inf
ROOT
ATOM      1  C   UNL     1      -1.368   1.647  -1.512  1.00  0.00     0.101 C 
ENDROOT
BRANCH   1   2
ATOM      2  C   UNL     1      -1.722   0.677  -2.715  1.00  0.00     0.201 C 
ATOM      3  Cl  UNL     1      -3.478   0.518  -3.043  1.00  0.00    -0.083 Cl
ATOM      4  Cl  UNL     1      -1.122  -0.993  -2.336  1.00  0.00    -0.083 Cl
ATOM      5  Cl  UNL     1      -0.902   1.162  -4.248  1.00  0.00    -0.083 Cl
ENDBRANCH   1   2
BRANCH   1   6
ATOM      6  C   UNL     1      -1.903   3.035  -1.622  1.00  0.00    -0.036 A 
ATOM      7  C   UNL     1      -2.223   3.752  -0.470  1.00  0.00     0.006 A 
ATOM      8  C   UNL     1      -2.086   3.614  -2.878  1.00  0.00     0.006 A 
ATOM      9  C   UNL     1      -2.725   5.050  -0.573  1.00  0.00     0.021 A 
ATOM     10  C   UNL     1      -2.587   4.912  -2.982  1.00  0.00     0.021 A 
ATOM     11  C   UNL     1      -2.906   5.629  -1.830  1.00  0.00     0.041 A 
ATOM     12  Cl  UNL     1      -3.526   7.230  -1.957  1.00  0.00    -0.084 Cl
ENDBRANCH   1   6
BRANCH   1  13
ATOM     13  C   UNL     1       0.096   1.608  -1.004  1.00  0.00    -0.036 A 
ATOM     14  C   UNL     1       0.368   0.858   0.105  1.00  0.00     0.006 A 
ATOM     15  C   UNL     1       1.031   2.327  -1.695  1.00  0.00     0.006 A 
ATOM     16  C   UNL     1       1.685   0.824   0.563  1.00  0.00     0.021 A 
ATOM     17  C   UNL     1       2.348   2.293  -1.237  1.00  0.00     0.021 A 
ATOM     18  C   UNL     1       2.676   1.542  -0.108  1.00  0.00     0.041 A 
ATOM     19  Cl  UNL     1       4.301   1.501   0.456  1.00  0.00    -0.084 Cl
ENDBRANCH   1  13
TORSDOF 3
ENDMDL
MODEL 2
REMARK VINA RESULT:    -6.508      0.071      1.588
REMARK INTER + INTRA:          -8.251
REMARK INTER:                  -7.653
REMARK INTRA:                  -0.599
REMARK UNBOUND:                -0.602
REMARK SMILES Clc1ccc(C(c2ccc(Cl)cc2)C(Cl)(Cl)Cl)cc1
REMARK SMILES IDX 6 1 14 2 15 3 16 4 17 5 5 6 4 7 18 8 3 9 19 10 2 11 1 12
REMARK SMILES IDX 7 13 8 14 13 15 9 16 12 17 10 18 11 19
REMARK H PARENT
REMARK Flexibility Score: inf
ROOT
ATOM      1  C   UNL     1      -1.373   1.639  -1.499  1.00  0.00     0.101 C 
ENDROOT
BRANCH   1   2
ATOM      2  C   UNL     1      -1.716   0.662  -2.700  1.00  0.00     0.201 C 
ATOM      3  Cl  UNL     1      -1.068   1.187  -4.287  1.00  0.00    -0.083 Cl
ATOM      4  Cl  UNL     1      -3.517   0.558  -2.895  1.00  0.00    -0.083 Cl
ATOM      5  Cl  UNL     1      -1.153  -1.025  -2.389  1.00  0.00    -0.083 Cl
ENDBRANCH   1   2
BRANCH   1   6
ATOM      6  C   UNL     1      -1.912   3.025  -1.621  1.00  0.00    -0.036 A 
ATOM      7  C   UNL     1      -2.027   3.620  -2.876  1.00  0.00     0.006 A 
ATOM      8  C   UNL     1      -2.301   3.725  -0.478  1.00  0.00     0.006 A 
ATOM      9  C   UNL     1      -2.530   4.916  -2.990  1.00  0.00     0.021 A 
ATOM     10  C   UNL     1      -2.804   5.021  -0.592  1.00  0.00     0.021 A 
ATOM     11  C   UNL     1      -2.919   5.616  -1.847  1.00  0.00     0.041 A 
ATOM     12  Cl  UNL     1      -3.540   7.216  -1.988  1.00  0.00    -0.084 Cl
ENDBRANCH   1   6
BRANCH   1  13
ATOM     13  C   UNL     1       0.087   1.608  -0.981  1.00  0.00    -0.036 A 
ATOM     14  C   UNL     1       0.352   0.874   0.141  1.00  0.00     0.006 A 
ATOM     15  C   UNL     1       1.027   2.317  -1.676  1.00  0.00     0.006 A 
ATOM     16  C   UNL     1       1.666   0.847   0.608  1.00  0.00     0.021 A 
ATOM     17  C   UNL     1       2.341   2.290  -1.208  1.00  0.00     0.021 A 
ATOM     18  C   UNL     1       2.661   1.555  -0.067  1.00  0.00     0.041 A 
ATOM     19  Cl  UNL     1       4.282   1.523   0.509  1.00  0.00    -0.084 Cl
ENDBRANCH   1  13
TORSDOF 3
ENDMDL
MODEL 3
REMARK VINA RESULT:    -6.371      2.337      4.787
REMARK INTER + INTRA:          -8.090
REMARK INTER:                  -7.518
REMARK INTRA:                  -0.573
REMARK UNBOUND:                -0.602
REMARK SMILES Clc1ccc(C(c2ccc(Cl)cc2)C(Cl)(Cl)Cl)cc1
REMARK SMILES IDX 6 1 14 2 15 3 16 4 17 5 5 6 4 7 18 8 3 9 19 10 2 11 1 12
REMARK SMILES IDX 7 13 8 14 13 15 9 16 12 17 10 18 11 19
REMARK H PARENT
REMARK Flexibility Score: inf
ROOT
ATOM      1  C   UNL     1      -0.223   1.487  -1.704  1.00  0.00     0.101 C 
ENDROOT
BRANCH   1   2
ATOM      2  C   UNL     1       0.142   0.957  -0.254  1.00  0.00     0.201 C 
ATOM      3  Cl  UNL     1      -0.914   1.590   1.050  1.00  0.00    -0.083 Cl
ATOM      4  Cl  UNL     1       1.831   1.471   0.165  1.00  0.00    -0.083 Cl
ATOM      5  Cl  UNL     1       0.135  -0.845  -0.163  1.00  0.00    -0.083 Cl
ENDBRANCH   1   2
BRANCH   1   6
ATOM      6  C   UNL     1      -0.150   2.965  -1.888  1.00  0.00    -0.036 A 
ATOM      7  C   UNL     1       0.440   3.495  -3.035  1.00  0.00     0.006 A 
ATOM      8  C   UNL     1      -0.669   3.817  -0.913  1.00  0.00     0.006 A 
ATOM      9  C   UNL     1       0.510   4.878  -3.208  1.00  0.00     0.021 A 
ATOM     10  C   UNL     1      -0.600   5.199  -1.086  1.00  0.00     0.021 A 
ATOM     11  C   UNL     1      -0.010   5.730  -2.233  1.00  0.00     0.041 A 
ATOM     12  Cl  UNL     1       0.076   7.436  -2.445  1.00  0.00    -0.084 Cl
ENDBRANCH   1   6
BRANCH   1  13
ATOM     13  C   UNL     1      -1.474   0.861  -2.370  1.00  0.00    -0.036 A 
ATOM     14  C   UNL     1      -1.284  -0.167  -3.250  1.00  0.00     0.006 A 
ATOM     15  C   UNL     1      -2.698   1.373  -2.040  1.00  0.00     0.006 A 
ATOM     16  C   UNL     1      -2.410  -0.729  -3.851  1.00  0.00     0.021 A 
ATOM     17  C   UNL     1      -3.824   0.812  -2.641  1.00  0.00     0.021 A 
ATOM     18  C   UNL     1      -3.680  -0.240  -3.546  1.00  0.00     0.041 A 
ATOM     19  Cl  UNL     1      -5.071  -0.933  -4.288  1.00  0.00    -0.084 Cl
ENDBRANCH   1  13
TORSDOF 3
ENDMDL
MODEL 4
REMARK VINA RESULT:    -6.085      1.169      5.426
REMARK INTER + INTRA:          -7.754
REMARK INTER:                  -7.122
REMARK INTRA:                  -0.632
REMARK UNBOUND:                -0.602
REMARK SMILES Clc1ccc(C(c2ccc(Cl)cc2)C(Cl)(Cl)Cl)cc1
REMARK SMILES IDX 6 1 14 2 15 3 16 4 17 5 5 6 4 7 18 8 3 9 19 10 2 11 1 12
REMARK SMILES IDX 7 13 8 14 13 15 9 16 12 17 10 18 11 19
REMARK H PARENT
REMARK Flexibility Score: inf
ROOT
ATOM      1  C   UNL     1      -1.508   2.662  -2.487  1.00  0.00     0.101 C 
ENDROOT
BRANCH   1   2
ATOM      2  C   UNL     1      -2.678   1.612  -2.700  1.00  0.00     0.201 C 
ATOM      3  Cl  UNL     1      -2.154  -0.101  -2.627  1.00  0.00    -0.083 Cl
ATOM      4  Cl  UNL     1      -3.408   1.851  -4.344  1.00  0.00    -0.083 Cl
ATOM      5  Cl  UNL     1      -4.025   1.842  -1.522  1.00  0.00    -0.083 Cl
ENDBRANCH   1   2
BRANCH   1   6
ATOM      6  C   UNL     1      -0.419   2.236  -1.563  1.00  0.00    -0.036 A 
ATOM      7  C   UNL     1      -0.730   1.565  -0.381  1.00  0.00     0.006 A 
ATOM      8  C   UNL     1       0.912   2.510  -1.879  1.00  0.00     0.006 A 
ATOM      9  C   UNL     1       0.289   1.167   0.485  1.00  0.00     0.021 A 
ATOM     10  C   UNL     1       1.931   2.112  -1.014  1.00  0.00     0.021 A 
ATOM     11  C   UNL     1       1.620   1.441   0.168  1.00  0.00     0.041 A 
ATOM     12  Cl  UNL     1       2.877   0.950   1.236  1.00  0.00    -0.084 Cl
ENDBRANCH   1   6
BRANCH   1  13
ATOM     13  C   UNL     1      -1.937   4.135  -2.270  1.00  0.00    -0.036 A 
ATOM     14  C   UNL     1      -2.096   4.572  -0.985  1.00  0.00     0.006 A 
ATOM     15  C   UNL     1      -2.135   4.913  -3.376  1.00  0.00     0.006 A 
ATOM     16  C   UNL     1      -2.483   5.897  -0.790  1.00  0.00     0.021 A 
ATOM     17  C   UNL     1      -2.523   6.238  -3.181  1.00  0.00     0.021 A 
ATOM     18  C   UNL     1      -2.697   6.731  -1.888  1.00  0.00     0.041 A 
ATOM     19  Cl  UNL     1      -3.176   8.367  -1.647  1.00  0.00    -0.084 Cl
ENDBRANCH   1  13
TORSDOF 3
ENDMDL
MODEL 5
REMARK VINA RESULT:    -6.047      2.088      4.078
REMARK INTER + INTRA:          -7.710
REMARK INTER:                  -7.094
REMARK INTRA:                  -0.616
REMARK UNBOUND:                -0.602
REMARK SMILES Clc1ccc(C(c2ccc(Cl)cc2)C(Cl)(Cl)Cl)cc1
REMARK SMILES IDX 6 1 14 2 15 3 16 4 17 5 5 6 4 7 18 8 3 9 19 10 2 11 1 12
REMARK SMILES IDX 7 13 8 14 13 15 9 16 12 17 10 18 11 19
REMARK H PARENT
REMARK Flexibility Score: inf
ROOT
ATOM      1  C   UNL     1      -1.961   3.175  -1.962  1.00  0.00     0.101 C 
ENDROOT
BRANCH   1   2
ATOM      2  C   UNL     1      -2.739   4.348  -1.231  1.00  0.00     0.201 C 
ATOM      3  Cl  UNL     1      -3.871   5.253  -2.287  1.00  0.00    -0.083 Cl
ATOM      4  Cl  UNL     1      -1.544   5.562  -0.606  1.00  0.00    -0.083 Cl
ATOM      5  Cl  UNL     1      -3.654   3.766   0.211  1.00  0.00    -0.083 Cl
ENDBRANCH   1   2
BRANCH   1   6
ATOM      6  C   UNL     1      -2.816   2.142  -2.615  1.00  0.00    -0.036 A 
ATOM      7  C   UNL     1      -4.018   1.756  -2.023  1.00  0.00     0.006 A 
ATOM      8  C   UNL     1      -2.413   1.560  -3.817  1.00  0.00     0.006 A 
ATOM      9  C   UNL     1      -4.818   0.789  -2.633  1.00  0.00     0.021 A 
ATOM     10  C   UNL     1      -3.212   0.594  -4.428  1.00  0.00     0.021 A 
ATOM     11  C   UNL     1      -4.414   0.208  -3.836  1.00  0.00     0.041 A 
ATOM     12  Cl  UNL     1      -5.400  -0.985  -4.588  1.00  0.00    -0.084 Cl
ENDBRANCH   1   6
BRANCH   1  13
ATOM     13  C   UNL     1      -0.762   2.563  -1.195  1.00  0.00    -0.036 A 
ATOM     14  C   UNL     1      -1.030   1.780  -0.107  1.00  0.00     0.006 A 
ATOM     15  C   UNL     1       0.497   2.841  -1.650  1.00  0.00     0.006 A 
ATOM     16  C   UNL     1       0.050   1.231   0.583  1.00  0.00     0.021 A 
ATOM     17  C   UNL     1       1.577   2.292  -0.959  1.00  0.00     0.021 A 
ATOM     18  C   UNL     1       1.354   1.487   0.157  1.00  0.00     0.041 A 
ATOM     19  Cl  UNL     1       2.687   0.810   1.010  1.00  0.00    -0.084 Cl
ENDBRANCH   1  13
TORSDOF 3
ENDMDL
