MODEL 1
REMARK VINA RESULT:    -6.178      0.000      0.000
REMARK INTER + INTRA:          -7.654
REMARK INTER:                  -7.262
REMARK INTRA:                  -0.393
REMARK UNBOUND:                -0.393
REMARK SMILES Clc1ccc(C(c2ccc(Cl)cc2)C(Cl)(Cl)Cl)cc1
REMARK SMILES IDX 6 1 14 2 15 3 16 4 17 5 5 6 4 7 18 8 3 9 19 10 2 11 1 12
REMARK SMILES IDX 7 13 8 14 13 15 9 16 12 17 10 18 11 19
REMARK H PARENT
REMARK Flexibility Score: inf
ROOT
ATOM      1  C   UNL     1       0.058   1.340  -1.336  1.00  0.00     0.101 C 
ENDROOT
BRANCH   1   2
ATOM      2  C   UNL     1       0.374   0.781   0.114  1.00  0.00     0.201 C 
ATOM      3  Cl  UNL     1      -0.696   1.421   1.402  1.00  0.00    -0.083 Cl
ATOM      4  Cl  UNL     1       2.065   1.246   0.580  1.00  0.00    -0.083 Cl
ATOM      5  Cl  UNL     1       0.321  -1.022   0.178  1.00  0.00    -0.083 Cl
ENDBRANCH   1   2
BRANCH   1   6
ATOM      6  C   UNL     1       0.152   2.820  -1.493  1.00  0.00    -0.036 A 
ATOM      7  C   UNL     1      -0.765   3.649  -0.848  1.00  0.00     0.006 A 
ATOM      8  C   UNL     1       1.157   3.375  -2.285  1.00  0.00     0.006 A 
ATOM      9  C   UNL     1      -0.678   5.033  -0.995  1.00  0.00     0.021 A 
ATOM     10  C   UNL     1       1.246   4.759  -2.432  1.00  0.00     0.021 A 
ATOM     11  C   UNL     1       0.328   5.588  -1.787  1.00  0.00     0.041 A 
ATOM     12  Cl  UNL     1       0.436   7.297  -1.969  1.00  0.00    -0.084 Cl
ENDBRANCH   1   6
BRANCH   1  13
ATOM     13  C   UNL     1      -1.180   0.739  -2.050  1.00  0.00    -0.036 A 
ATOM     14  C   UNL     1      -2.400   1.298  -1.792  1.00  0.00     0.006 A 
ATOM     15  C   UNL     1      -0.981  -0.317  -2.895  1.00  0.00     0.006 A 
ATOM     16  C   UNL     1      -3.514   0.756  -2.433  1.00  0.00     0.021 A 
ATOM     17  C   UNL     1      -2.095  -0.859  -3.535  1.00  0.00     0.021 A 
ATOM     18  C   UNL     1      -3.362  -0.322  -3.305  1.00  0.00     0.041 A 
ATOM     19  Cl  UNL     1      -4.737  -0.991  -4.096  1.00  0.00    -0.084 Cl
ENDBRANCH   1  13
TORSDOF 3
ENDMDL
MODEL 2
REMARK VINA RESULT:    -6.176      0.032      1.568
REMARK INTER + INTRA:          -7.652
REMARK INTER:                  -7.252
REMARK INTRA:                  -0.400
REMARK UNBOUND:                -0.393
REMARK SMILES Clc1ccc(C(c2ccc(Cl)cc2)C(Cl)(Cl)Cl)cc1
REMARK SMILES IDX 6 1 14 2 15 3 16 4 17 5 5 6 4 7 18 8 3 9 19 10 2 11 1 12
REMARK SMILES IDX 7 13 8 14 13 15 9 16 12 17 10 18 11 19
REMARK H PARENT
REMARK Flexibility Score: inf
ROOT
ATOM      1  C   UNL     1       0.041   1.342  -1.329  1.00  0.00     0.101 C 
ENDROOT
BRANCH   1   2
ATOM      2  C   UNL     1       0.363   0.774   0.117  1.00  0.00     0.201 C 
ATOM      3  Cl  UNL     1      -0.701   1.410   1.413  1.00  0.00    -0.083 Cl
ATOM      4  Cl  UNL     1       2.057   1.234   0.578  1.00  0.00    -0.083 Cl
ATOM      5  Cl  UNL     1       0.307  -1.028   0.171  1.00  0.00    -0.083 Cl
ENDBRANCH   1   2
BRANCH   1   6
ATOM      6  C   UNL     1       0.132   2.823  -1.475  1.00  0.00    -0.036 A 
ATOM      7  C   UNL     1       1.143   3.386  -2.255  1.00  0.00     0.006 A 
ATOM      8  C   UNL     1      -0.793   3.646  -0.832  1.00  0.00     0.006 A 
ATOM      9  C   UNL     1       1.229   4.771  -2.391  1.00  0.00     0.021 A 
ATOM     10  C   UNL     1      -0.707   5.032  -0.969  1.00  0.00     0.021 A 
ATOM     11  C   UNL     1       0.303   5.594  -1.748  1.00  0.00     0.041 A 
ATOM     12  Cl  UNL     1       0.409   7.304  -1.917  1.00  0.00    -0.084 Cl
ENDBRANCH   1   6
BRANCH   1  13
ATOM     13  C   UNL     1      -1.197   0.743  -2.042  1.00  0.00    -0.036 A 
ATOM     14  C   UNL     1      -0.997  -0.297  -2.906  1.00  0.00     0.006 A 
ATOM     15  C   UNL     1      -2.419   1.291  -1.769  1.00  0.00     0.006 A 
ATOM     16  C   UNL     1      -2.112  -0.834  -3.549  1.00  0.00     0.021 A 
ATOM     17  C   UNL     1      -3.534   0.754  -2.413  1.00  0.00     0.021 A 
ATOM     18  C   UNL     1      -3.380  -0.309  -3.302  1.00  0.00     0.041 A 
ATOM     19  Cl  UNL     1      -4.756  -0.971  -4.097  1.00  0.00    -0.084 Cl
ENDBRANCH   1  13
TORSDOF 3
ENDMDL
MODEL 3
REMARK VINA RESULT:    -6.111      2.239      4.670
REMARK INTER + INTRA:          -7.576
REMARK INTER:                  -6.942
REMARK INTRA:                  -0.633
REMARK UNBOUND:                -0.393
REMARK SMILES Clc1ccc(C(c2ccc(Cl)cc2)C(Cl)(Cl)Cl)cc1
REMARK SMILES IDX 6 1 14 2 15 3 16 4 17 5 5 6 4 7 18 8 3 9 19 10 2 11 1 12
REMARK SMILES IDX 7 13 8 14 13 15 9 16 12 17 10 18 11 19
REMARK H PARENT
REMARK Flexibility Score: inf
ROOT
ATOM      1  C   UNL     1      -1.353   2.003  -1.323  1.00  0.00     0.101 C 
ENDROOT
BRANCH   1   2
ATOM      2  C   UNL     1      -1.775   1.156  -2.595  1.00  0.00     0.201 C 
ATOM      3  Cl  UNL     1      -1.079   1.745  -4.139  1.00  0.00    -0.083 Cl
ATOM      4  Cl  UNL     1      -3.578   1.225  -2.791  1.00  0.00    -0.083 Cl
ATOM      5  Cl  UNL     1      -1.363  -0.592  -2.419  1.00  0.00    -0.083 Cl
ENDBRANCH   1   2
BRANCH   1   6
ATOM      6  C   UNL     1      -1.782   3.432  -1.327  1.00  0.00    -0.036 A 
ATOM      7  C   UNL     1      -2.223   4.031  -0.147  1.00  0.00     0.006 A 
ATOM      8  C   UNL     1      -1.744   4.168  -2.511  1.00  0.00     0.006 A 
ATOM      9  C   UNL     1      -2.625   5.367  -0.151  1.00  0.00     0.021 A 
ATOM     10  C   UNL     1      -2.145   5.504  -2.515  1.00  0.00     0.021 A 
ATOM     11  C   UNL     1      -2.586   6.103  -1.336  1.00  0.00     0.041 A 
ATOM     12  Cl  UNL     1      -3.083   7.751  -1.341  1.00  0.00    -0.084 Cl
ENDBRANCH   1   6
BRANCH   1  13
ATOM     13  C   UNL     1       0.102   1.816  -0.823  1.00  0.00    -0.036 A 
ATOM     14  C   UNL     1       0.296   1.105   0.328  1.00  0.00     0.006 A 
ATOM     15  C   UNL     1       1.108   2.373  -1.562  1.00  0.00     0.006 A 
ATOM     16  C   UNL     1       1.606   0.938   0.778  1.00  0.00     0.021 A 
ATOM     17  C   UNL     1       2.418   2.206  -1.111  1.00  0.00     0.021 A 
ATOM     18  C   UNL     1       2.667   1.488   0.058  1.00  0.00     0.041 A 
ATOM     19  Cl  UNL     1       4.283   1.282   0.614  1.00  0.00    -0.084 Cl
ENDBRANCH   1  13
TORSDOF 3
ENDMDL
MODEL 4
REMARK VINA RESULT:    -6.104      2.218      4.782
REMARK INTER + INTRA:          -7.567
REMARK INTER:                  -6.966
REMARK INTRA:                  -0.601
REMARK UNBOUND:                -0.393
REMARK SMILES Clc1ccc(C(c2ccc(Cl)cc2)C(Cl)(Cl)Cl)cc1
REMARK SMILES IDX 6 1 14 2 15 3 16 4 17 5 5 6 4 7 18 8 3 9 19 10 2 11 1 12
REMARK SMILES IDX 7 13 8 14 13 15 9 16 12 17 10 18 11 19
REMARK H PARENT
REMARK Flexibility Score: inf
ROOT
ATOM      1  C   UNL     1      -1.393   1.943  -1.294  1.00  0.00     0.101 C 
ENDROOT
BRANCH   1   2
ATOM      2  C   UNL     1      -1.819   1.053  -2.536  1.00  0.00     0.201 C 
ATOM      3  Cl  UNL     1      -1.221   1.656  -4.115  1.00  0.00    -0.083 Cl
ATOM      4  Cl  UNL     1      -3.629   1.019  -2.656  1.00  0.00    -0.083 Cl
ATOM      5  Cl  UNL     1      -1.302  -0.666  -2.354  1.00  0.00    -0.083 Cl
ENDBRANCH   1   2
BRANCH   1   6
ATOM      6  C   UNL     1      -1.835   3.366  -1.337  1.00  0.00    -0.036 A 
ATOM      7  C   UNL     1      -1.933   4.029  -2.560  1.00  0.00     0.006 A 
ATOM      8  C   UNL     1      -2.149   4.036  -0.154  1.00  0.00     0.006 A 
ATOM      9  C   UNL     1      -2.345   5.361  -2.601  1.00  0.00     0.021 A 
ATOM     10  C   UNL     1      -2.563   5.367  -0.195  1.00  0.00     0.021 A 
ATOM     11  C   UNL     1      -2.660   6.030  -1.418  1.00  0.00     0.041 A 
ATOM     12  Cl  UNL     1      -3.169   7.674  -1.468  1.00  0.00    -0.084 Cl
ENDBRANCH   1   6
BRANCH   1  13
ATOM     13  C   UNL     1       0.068   1.784  -0.802  1.00  0.00    -0.036 A 
ATOM     14  C   UNL     1       1.058   2.373  -1.538  1.00  0.00     0.006 A 
ATOM     15  C   UNL     1       0.284   1.061   0.338  1.00  0.00     0.006 A 
ATOM     16  C   UNL     1       2.373   2.228  -1.096  1.00  0.00     0.021 A 
ATOM     17  C   UNL     1       1.600   0.916   0.779  1.00  0.00     0.021 A 
ATOM     18  C   UNL     1       2.644   1.500   0.062  1.00  0.00     0.041 A 
ATOM     19  Cl  UNL     1       4.267   1.320   0.607  1.00  0.00    -0.084 Cl
ENDBRANCH   1  13
TORSDOF 3
ENDMDL
MODEL 5
REMARK VINA RESULT:    -6.010      3.750      5.837
REMARK INTER + INTRA:          -7.457
REMARK INTER:                  -7.087
REMARK INTRA:                  -0.371
REMARK UNBOUND:                -0.393
REMARK SMILES Clc1ccc(C(c2ccc(Cl)cc2)C(Cl)(Cl)Cl)cc1
REMARK SMILES IDX 6 1 14 2 15 3 16 4 17 5 5 6 4 7 18 8 3 9 19 10 2 11 1 12
REMARK SMILES IDX 7 13 8 14 13 15 9 16 12 17 10 18 11 19
REMARK H PARENT
REMARK Flexibility Score: inf
ROOT
ATOM      1  C   UNL     1      -4.715   4.090  -1.667  1.00  0.00     0.101 C 
ENDROOT
BRANCH   1   2
ATOM      2  C   UNL     1      -5.600   3.234  -2.667  1.00  0.00     0.201 C 
ATOM      3  Cl  UNL     1      -5.383   3.663  -4.395  1.00  0.00    -0.083 Cl
ATOM      4  Cl  UNL     1      -7.355   3.499  -2.293  1.00  0.00    -0.083 Cl
ATOM      5  Cl  UNL     1      -5.316   1.461  -2.484  1.00  0.00    -0.083 Cl
ENDBRANCH   1   2
BRANCH   1   6
ATOM      6  C   UNL     1      -4.542   5.527  -2.026  1.00  0.00    -0.036 A 
ATOM      7  C   UNL     1      -5.617   6.252  -2.540  1.00  0.00     0.006 A 
ATOM      8  C   UNL     1      -3.304   6.146  -1.849  1.00  0.00     0.006 A 
ATOM      9  C   UNL     1      -5.455   7.596  -2.877  1.00  0.00     0.021 A 
ATOM     10  C   UNL     1      -3.142   7.490  -2.186  1.00  0.00     0.021 A 
ATOM     11  C   UNL     1      -4.217   8.215  -2.700  1.00  0.00     0.041 A 
ATOM     12  Cl  UNL     1      -4.017   9.873  -3.116  1.00  0.00    -0.084 Cl
ENDBRANCH   1   6
BRANCH   1  13
ATOM     13  C   UNL     1      -3.401   3.432  -1.175  1.00  0.00    -0.036 A 
ATOM     14  C   UNL     1      -2.443   3.144  -2.106  1.00  0.00     0.006 A 
ATOM     15  C   UNL     1      -3.276   3.176   0.162  1.00  0.00     0.006 A 
ATOM     16  C   UNL     1      -1.261   2.551  -1.663  1.00  0.00     0.021 A 
ATOM     17  C   UNL     1      -2.094   2.581   0.604  1.00  0.00     0.021 A 
ATOM     18  C   UNL     1      -1.086   2.270  -0.308  1.00  0.00     0.041 A 
ATOM     19  Cl  UNL     1       0.372   1.536   0.238  1.00  0.00    -0.084 Cl
ENDBRANCH   1  13
TORSDOF 3
ENDMDL
