MODEL 1
REMARK VINA RESULT:    -6.917      0.000      0.000
REMARK INTER + INTRA:         -11.612
REMARK INTER:                 -10.152
REMARK INTRA:                  -1.460
REMARK UNBOUND:                -1.460
REMARK SMILES CC1(C)C(C=C(Br)Br)C1C(=O)OC(C#N)c1cccc(Oc2ccccc2)c1
REMARK SMILES IDX 13 1 12 2 10 3 11 4 9 5 4 6 2 7 1 8 3 9 5 10 7 11 6 12 8 13
REMARK SMILES IDX 16 14 28 15 17 16 20 17 18 18 19 19 21 20 22 21 23 22 27 23
REMARK SMILES IDX 24 24 26 25 25 26 14 27 15 28
REMARK H PARENT
REMARK Flexibility Score: inf
ROOT
ATOM      1  C   UNL     1      -4.207   1.499  -2.746  1.00  0.00     0.309 C
ENDROOT
BRANCH   1   2
ATOM      2  O   UNL     1      -2.879   1.617  -3.275  1.00  0.00    -0.442 OA
BRANCH   2   3
ATOM      3  C   UNL     1      -1.880   1.275  -2.418  1.00  0.00     0.311 C
ATOM      4  O   UNL     1      -1.658   0.168  -1.947  1.00  0.00    -0.252 OA
BRANCH   3   5
ATOM      5  C   UNL     1      -1.027   2.446  -2.086  1.00  0.00     0.113 C
ATOM      6  C   UNL     1      -0.172   2.377  -0.861  1.00  0.00     0.035 C
ATOM      7  C   UNL     1      -1.355   3.299  -0.902  1.00  0.00    -0.014 C
ATOM      8  C   UNL     1      -2.526   2.947  -0.046  1.00  0.00     0.012 C
ATOM      9  C   UNL     1      -1.143   4.769  -1.047  1.00  0.00     0.012 C
BRANCH   6  10
ATOM     10  C   UNL     1      -0.209   1.163  -0.060  1.00  0.00     0.001 C
ATOM     11  Br  UNL     1       2.555   1.244   0.600  1.00  0.00    -0.043 Br
ATOM     12  C   UNL     1       0.807   0.574   0.594  1.00  0.00     0.057 C
ATOM     13  Br  UNL     1       0.541  -1.000   1.578  1.00  0.00    -0.043 Br
ENDBRANCH   6  10
ENDBRANCH   3   5
ENDBRANCH   2   3
ENDBRANCH   1   2
BRANCH   1  14
ATOM     14  C   UNL     1      -4.920   2.802  -2.867  1.00  0.00     0.011 A
ATOM     15  C   UNL     1      -4.335   3.855  -3.572  1.00  0.00     0.055 A
ATOM     16  C   UNL     1      -6.173   2.968  -2.278  1.00  0.00     0.009 A
ATOM     17  C   UNL     1      -5.003   5.074  -3.685  1.00  0.00     0.127 A
ATOM     18  C   UNL     1      -6.841   4.188  -2.392  1.00  0.00     0.004 A
ATOM     19  C   UNL     1      -6.256   5.241  -3.095  1.00  0.00     0.047 A
BRANCH  17  20
ATOM     20  O   UNL     1      -4.432   6.102  -4.371  1.00  0.00    -0.457 OA
BRANCH  20  21
ATOM     21  C   UNL     1      -3.353   6.744  -3.788  1.00  0.00     0.127 A
ATOM     22  C   UNL     1      -3.539   7.432  -2.603  1.00  0.00     0.047 A
ATOM     23  C   UNL     1      -2.117   6.681  -4.406  1.00  0.00     0.047 A
ATOM     24  C   UNL     1      -2.452   8.080  -2.014  1.00  0.00     0.004 A
ATOM     25  C   UNL     1      -1.030   7.329  -3.818  1.00  0.00     0.004 A
ATOM     26  C   UNL     1      -1.197   8.027  -2.622  1.00  0.00     0.000 A
ENDBRANCH  20  21
ENDBRANCH  17  20
ENDBRANCH   1  14
BRANCH   1  27
ATOM     27  C   UNL     1      -4.912   0.399  -3.435  1.00  0.00     0.113 C
ATOM     28  N   UNL     1      -5.473  -0.458  -3.980  1.00  0.00    -0.194 NA
ENDBRANCH   1  27
TORSDOF 8
ENDMDL
MODEL 2
REMARK VINA RESULT:    -6.745      2.044      4.196
REMARK INTER + INTRA:         -11.359
REMARK INTER:                 -10.500
REMARK INTRA:                  -0.859
REMARK UNBOUND:                -1.460
REMARK SMILES CC1(C)C(C=C(Br)Br)C1C(=O)OC(C#N)c1cccc(Oc2ccccc2)c1
REMARK SMILES IDX 13 1 12 2 10 3 11 4 9 5 4 6 2 7 1 8 3 9 5 10 7 11 6 12 8 13
REMARK SMILES IDX 16 14 28 15 17 16 20 17 18 18 19 19 21 20 22 21 23 22 27 23
REMARK SMILES IDX 24 24 26 25 25 26 14 27 15 28
REMARK H PARENT
REMARK Flexibility Score: inf
ROOT
ATOM      1  C   UNL     1      -4.188   1.822  -2.407  1.00  0.00     0.309 C
ENDROOT
BRANCH   1   2
ATOM      2  O   UNL     1      -2.884   1.945  -2.991  1.00  0.00    -0.442 OA
BRANCH   2   3
ATOM      3  C   UNL     1      -1.855   1.520  -2.210  1.00  0.00     0.311 C
ATOM      4  O   UNL     1      -1.668   0.387  -1.788  1.00  0.00    -0.252 OA
BRANCH   3   5
ATOM      5  C   UNL     1      -0.918   2.630  -1.897  1.00  0.00     0.113 C
ATOM      6  C   UNL     1      -0.047   2.504  -0.689  1.00  0.00     0.035 C
ATOM      7  C   UNL     1      -1.165   3.504  -0.709  1.00  0.00    -0.014 C
ATOM      8  C   UNL     1      -2.340   3.234   0.170  1.00  0.00     0.012 C
ATOM      9  C   UNL     1      -0.856   4.956  -0.861  1.00  0.00     0.012 C
BRANCH   6  10
ATOM     10  C   UNL     1      -0.150   1.296   0.115  1.00  0.00     0.001 C
ATOM     11  Br  UNL     1       2.618   1.213   0.756  1.00  0.00    -0.043 Br
ATOM     12  C   UNL     1       0.833   0.649   0.764  1.00  0.00     0.057 C
ATOM     13  Br  UNL     1       0.481  -0.905   1.753  1.00  0.00    -0.043 Br
ENDBRANCH   6  10
ENDBRANCH   3   5
ENDBRANCH   2   3
ENDBRANCH   1   2
BRANCH   1  14
ATOM     14  C   UNL     1      -4.915   3.118  -2.509  1.00  0.00     0.011 A
ATOM     15  C   UNL     1      -6.308   3.147  -2.420  1.00  0.00     0.055 A
ATOM     16  C   UNL     1      -4.204   4.304  -2.691  1.00  0.00     0.009 A
ATOM     17  C   UNL     1      -6.987   4.361  -2.515  1.00  0.00     0.127 A
ATOM     18  C   UNL     1      -4.885   5.518  -2.787  1.00  0.00     0.004 A
ATOM     19  C   UNL     1      -6.276   5.547  -2.699  1.00  0.00     0.047 A
BRANCH  17  20
ATOM     20  O   UNL     1      -8.346   4.389  -2.429  1.00  0.00    -0.457 OA
BRANCH  20  21
ATOM     21  C   UNL     1      -8.910   4.442  -1.165  1.00  0.00     0.127 A
ATOM     22  C   UNL     1      -8.737   5.579  -0.398  1.00  0.00     0.047 A
ATOM     23  C   UNL     1      -9.631   3.356  -0.703  1.00  0.00     0.047 A
ATOM     24  C   UNL     1      -9.304   5.633   0.876  1.00  0.00     0.004 A
ATOM     25  C   UNL     1     -10.198   3.409   0.570  1.00  0.00     0.004 A
ATOM     26  C   UNL     1     -10.036   4.547   1.359  1.00  0.00     0.000 A
ENDBRANCH  20  21
ENDBRANCH  17  20
ENDBRANCH   1  14
BRANCH   1  27
ATOM     27  C   UNL     1      -4.912   0.711  -3.057  1.00  0.00     0.113 C
ATOM     28  N   UNL     1      -5.473  -0.162  -3.576  1.00  0.00    -0.194 NA
ENDBRANCH   1  27
TORSDOF 8
ENDMDL
MODEL 3
REMARK VINA RESULT:    -6.607      1.918      2.480
REMARK INTER + INTRA:         -11.157
REMARK INTER:                  -9.590
REMARK INTRA:                  -1.566
REMARK UNBOUND:                -1.460
REMARK SMILES CC1(C)C(C=C(Br)Br)C1C(=O)OC(C#N)c1cccc(Oc2ccccc2)c1
REMARK SMILES IDX 13 1 12 2 10 3 11 4 9 5 4 6 2 7 1 8 3 9 5 10 7 11 6 12 8 13
REMARK SMILES IDX 16 14 28 15 17 16 20 17 18 18 19 19 21 20 22 21 23 22 27 23
REMARK SMILES IDX 24 24 26 25 25 26 14 27 15 28
REMARK H PARENT
REMARK Flexibility Score: inf
ROOT
ATOM      1  C   UNL     1      -4.633   1.233  -2.961  1.00  0.00     0.309 C
ENDROOT
BRANCH   1   2
ATOM      2  O   UNL     1      -3.272   1.367  -3.393  1.00  0.00    -0.442 OA
BRANCH   2   3
ATOM      3  C   UNL     1      -2.335   0.949  -2.501  1.00  0.00     0.311 C
ATOM      4  O   UNL     1      -1.589  -0.014  -2.612  1.00  0.00    -0.252 OA
BRANCH   3   5
ATOM      5  C   UNL     1      -2.300   1.825  -1.301  1.00  0.00     0.113 C
ATOM      6  C   UNL     1      -1.464   3.064  -1.352  1.00  0.00     0.035 C
ATOM      7  C   UNL     1      -1.056   1.916  -0.477  1.00  0.00    -0.014 C
ATOM      8  C   UNL     1       0.153   1.141  -0.885  1.00  0.00     0.012 C
ATOM      9  C   UNL     1      -1.229   2.015   1.002  1.00  0.00     0.012 C
BRANCH   6  10
ATOM     10  C   UNL     1      -0.734   3.356  -2.577  1.00  0.00     0.001 C
ATOM     11  Br  UNL     1       0.509   5.695  -1.546  1.00  0.00    -0.043 Br
ATOM     12  C   UNL     1       0.102   4.380  -2.815  1.00  0.00     0.057 C
ATOM     13  Br  UNL     1       0.948   4.573  -4.478  1.00  0.00    -0.043 Br
ENDBRANCH   6  10
ENDBRANCH   3   5
ENDBRANCH   2   3
ENDBRANCH   1   2
BRANCH   1  14
ATOM     14  C   UNL     1      -5.297   2.567  -2.953  1.00  0.00     0.011 A
ATOM     15  C   UNL     1      -4.813   3.593  -3.766  1.00  0.00     0.055 A
ATOM     16  C   UNL     1      -6.404   2.790  -2.134  1.00  0.00     0.009 A
ATOM     17  C   UNL     1      -5.435   4.841  -3.758  1.00  0.00     0.127 A
ATOM     18  C   UNL     1      -7.026   4.039  -2.127  1.00  0.00     0.004 A
ATOM     19  C   UNL     1      -6.542   5.064  -2.939  1.00  0.00     0.047 A
BRANCH  17  20
ATOM     20  O   UNL     1      -4.963   5.842  -4.551  1.00  0.00    -0.457 OA
BRANCH  20  21
ATOM     21  C   UNL     1      -3.967   6.656  -4.034  1.00  0.00     0.127 A
ATOM     22  C   UNL     1      -4.287   7.563  -3.041  1.00  0.00     0.047 A
ATOM     23  C   UNL     1      -2.679   6.539  -4.526  1.00  0.00     0.047 A
ATOM     24  C   UNL     1      -3.284   8.383  -2.520  1.00  0.00     0.004 A
ATOM     25  C   UNL     1      -1.678   7.358  -4.007  1.00  0.00     0.004 A
ATOM     26  C   UNL     1      -1.979   8.280  -3.003  1.00  0.00     0.000 A
ENDBRANCH  20  21
ENDBRANCH  17  20
ENDBRANCH   1  14
BRANCH   1  27
ATOM     27  C   UNL     1      -5.327   0.258  -3.825  1.00  0.00     0.113 C
ATOM     28  N   UNL     1      -5.866  -0.506  -4.513  1.00  0.00    -0.194 NA
ENDBRANCH   1  27
TORSDOF 8
ENDMDL
MODEL 4
REMARK VINA RESULT:    -6.535      3.566      5.848
REMARK INTER + INTRA:         -11.051
REMARK INTER:                  -9.380
REMARK INTRA:                  -1.671
REMARK UNBOUND:                -1.460
REMARK SMILES CC1(C)C(C=C(Br)Br)C1C(=O)OC(C#N)c1cccc(Oc2ccccc2)c1
REMARK SMILES IDX 13 1 12 2 10 3 11 4 9 5 4 6 2 7 1 8 3 9 5 10 7 11 6 12 8 13
REMARK SMILES IDX 16 14 28 15 17 16 20 17 18 18 19 19 21 20 22 21 23 22 27 23
REMARK SMILES IDX 24 24 26 25 25 26 14 27 15 28
REMARK H PARENT
REMARK Flexibility Score: inf
ROOT
ATOM      1  C   UNL     1      -0.776   2.323  -0.370  1.00  0.00     0.309 C
ENDROOT
BRANCH   1   2
ATOM      2  O   UNL     1       0.133   3.238  -0.997  1.00  0.00    -0.442 OA
BRANCH   2   3
ATOM      3  C   UNL     1      -0.342   4.500  -1.173  1.00  0.00     0.311 C
ATOM      4  O   UNL     1      -1.266   5.030  -0.572  1.00  0.00    -0.252 OA
BRANCH   3   5
ATOM      5  C   UNL     1       0.413   5.221  -2.230  1.00  0.00     0.113 C
ATOM      6  C   UNL     1      -0.265   6.344  -2.946  1.00  0.00     0.035 C
ATOM      7  C   UNL     1       0.028   5.061  -3.666  1.00  0.00    -0.014 C
ATOM      8  C   UNL     1      -1.135   4.196  -4.022  1.00  0.00     0.012 C
ATOM      9  C   UNL     1       1.137   5.008  -4.663  1.00  0.00     0.012 C
BRANCH   6  10
ATOM     10  C   UNL     1      -1.628   6.684  -2.566  1.00  0.00     0.001 C
ATOM     11  Br  UNL     1      -1.780   8.951  -4.274  1.00  0.00    -0.043 Br
ATOM     12  C   UNL     1      -2.379   7.706  -3.011  1.00  0.00     0.057 C
ATOM     13  Br  UNL     1      -4.128   7.966  -2.386  1.00  0.00    -0.043 Br
ENDBRANCH   6  10
ENDBRANCH   3   5
ENDBRANCH   2   3
ENDBRANCH   1   2
BRANCH   1  14
ATOM     14  C   UNL     1      -1.527   1.562  -1.407  1.00  0.00     0.011 A
ATOM     15  C   UNL     1      -2.887   1.808  -1.606  1.00  0.00     0.055 A
ATOM     16  C   UNL     1      -0.872   0.604  -2.181  1.00  0.00     0.009 A
ATOM     17  C   UNL     1      -3.589   1.096  -2.577  1.00  0.00     0.127 A
ATOM     18  C   UNL     1      -1.576  -0.108  -3.153  1.00  0.00     0.004 A
ATOM     19  C   UNL     1      -2.934   0.137  -3.351  1.00  0.00     0.047 A
BRANCH  17  20
ATOM     20  O   UNL     1      -4.916   1.335  -2.771  1.00  0.00    -0.457 OA
BRANCH  20  21
ATOM     21  C   UNL     1      -5.290   2.614  -3.148  1.00  0.00     0.127 A
ATOM     22  C   UNL     1      -4.713   3.183  -4.268  1.00  0.00     0.047 A
ATOM     23  C   UNL     1      -6.233   3.290  -2.393  1.00  0.00     0.047 A
ATOM     24  C   UNL     1      -5.090   4.471  -4.648  1.00  0.00     0.004 A
ATOM     25  C   UNL     1      -6.609   4.578  -2.772  1.00  0.00     0.004 A
ATOM     26  C   UNL     1      -6.039   5.169  -3.899  1.00  0.00     0.000 A
ENDBRANCH  20  21
ENDBRANCH  17  20
ENDBRANCH   1  14
BRANCH   1  27
ATOM     27  C   UNL     1      -0.026   1.442   0.549  1.00  0.00     0.113 C
ATOM     28  N   UNL     1       0.569   0.759   1.275  1.00  0.00    -0.194 NA
ENDBRANCH   1  27
TORSDOF 8
ENDMDL
MODEL 5
REMARK VINA RESULT:    -6.435      2.620      4.836
REMARK INTER + INTRA:         -10.904
REMARK INTER:                 -10.008
REMARK INTRA:                  -0.896
REMARK UNBOUND:                -1.460
REMARK SMILES CC1(C)C(C=C(Br)Br)C1C(=O)OC(C#N)c1cccc(Oc2ccccc2)c1
REMARK SMILES IDX 13 1 12 2 10 3 11 4 9 5 4 6 2 7 1 8 3 9 5 10 7 11 6 12 8 13
REMARK SMILES IDX 16 14 28 15 17 16 20 17 18 18 19 19 21 20 22 21 23 22 27 23
REMARK SMILES IDX 24 24 26 25 25 26 14 27 15 28
REMARK H PARENT
REMARK Flexibility Score: inf
ROOT
ATOM      1  C   UNL     1      -4.274   1.516  -2.407  1.00  0.00     0.309 C
ENDROOT
BRANCH   1   2
ATOM      2  O   UNL     1      -2.904   1.588  -2.826  1.00  0.00    -0.442 OA
BRANCH   2   3
ATOM      3  C   UNL     1      -2.016   0.942  -2.024  1.00  0.00     0.311 C
ATOM      4  O   UNL     1      -1.451  -0.118  -2.254  1.00  0.00    -0.252 OA
BRANCH   3   5
ATOM      5  C   UNL     1      -1.782   1.691  -0.762  1.00  0.00     0.113 C
ATOM      6  C   UNL     1      -0.729   2.751  -0.751  1.00  0.00     0.035 C
ATOM      7  C   UNL     1      -0.521   1.476   0.012  1.00  0.00    -0.014 C
ATOM      8  C   UNL     1       0.507   0.528  -0.508  1.00  0.00     0.012 C
ATOM      9  C   UNL     1      -0.631   1.479   1.500  1.00  0.00     0.012 C
BRANCH   6  10
ATOM     10  C   UNL     1       0.010   3.006  -1.979  1.00  0.00     0.001 C
ATOM     11  Br  UNL     1       0.116   5.821  -1.600  1.00  0.00    -0.043 Br
ATOM     12  C   UNL     1       0.425   4.188  -2.463  1.00  0.00     0.057 C
ATOM     13  Br  UNL     1       1.370   4.295  -4.079  1.00  0.00    -0.043 Br
ENDBRANCH   6  10
ENDBRANCH   3   5
ENDBRANCH   2   3
ENDBRANCH   1   2
BRANCH   1  14
ATOM     14  C   UNL     1      -4.888   2.873  -2.439  1.00  0.00     0.011 A
ATOM     15  C   UNL     1      -6.276   3.013  -2.413  1.00  0.00     0.055 A
ATOM     16  C   UNL     1      -4.075   4.005  -2.493  1.00  0.00     0.009 A
ATOM     17  C   UNL     1      -6.850   4.283  -2.442  1.00  0.00     0.127 A
ATOM     18  C   UNL     1      -4.649   5.276  -2.523  1.00  0.00     0.004 A
ATOM     19  C   UNL     1      -6.037   5.415  -2.498  1.00  0.00     0.047 A
BRANCH  17  20
ATOM     20  O   UNL     1      -8.204   4.420  -2.418  1.00  0.00    -0.457 OA
BRANCH  20  21
ATOM     21  C   UNL     1      -8.825   4.459  -1.180  1.00  0.00     0.127 A
ATOM     22  C   UNL     1      -9.482   3.333  -0.721  1.00  0.00     0.047 A
ATOM     23  C   UNL     1      -8.770   5.624  -0.436  1.00  0.00     0.047 A
ATOM     24  C   UNL     1     -10.108   3.372   0.526  1.00  0.00     0.004 A
ATOM     25  C   UNL     1      -9.396   5.664   0.810  1.00  0.00     0.004 A
ATOM     26  C   UNL     1     -10.064   4.538   1.292  1.00  0.00     0.000 A
ENDBRANCH  20  21
ENDBRANCH  17  20
ENDBRANCH   1  14
BRANCH   1  27
ATOM     27  C   UNL     1      -4.995   0.546  -3.257  1.00  0.00     0.113 C
ATOM     28  N   UNL     1      -5.564  -0.221  -3.916  1.00  0.00    -0.194 NA
ENDBRANCH   1  27
TORSDOF 8
ENDMDL
