MODEL 1
REMARK VINA RESULT:    -6.858      0.000      0.000
REMARK INTER + INTRA:         -11.545
REMARK INTER:                 -10.066
REMARK INTRA:                  -1.479
REMARK UNBOUND:                -1.479
REMARK SMILES CC1(C)C(C=C(Br)Br)C1C(=O)OC(C#N)c1cccc(Oc2ccccc2)c1
REMARK SMILES IDX 13 1 12 2 10 3 11 4 9 5 4 6 2 7 1 8 3 9 5 10 7 11 6 12 8 13
REMARK SMILES IDX 16 14 28 15 17 16 20 17 18 18 19 19 21 20 22 21 23 22 27 23
REMARK SMILES IDX 24 24 26 25 25 26 14 27 15 28
REMARK H PARENT
REMARK Flexibility Score: inf
ROOT
ATOM      1  C   UNL     1      -4.306   1.507  -2.896  1.00  0.00     0.309 C
ENDROOT
BRANCH   1   2
ATOM      2  O   UNL     1      -2.977   1.601  -3.427  1.00  0.00    -0.442 OA
BRANCH   2   3
ATOM      3  C   UNL     1      -1.984   1.215  -2.582  1.00  0.00     0.311 C
ATOM      4  O   UNL     1      -1.775   0.087  -2.158  1.00  0.00    -0.252 OA
BRANCH   3   5
ATOM      5  C   UNL     1      -1.123   2.363  -2.197  1.00  0.00     0.113 C
ATOM      6  C   UNL     1      -0.222   2.209  -1.014  1.00  0.00     0.035 C
ATOM      7  C   UNL     1      -1.409   3.125  -0.943  1.00  0.00    -0.014 C
ATOM      8  C   UNL     1      -2.545   2.705  -0.072  1.00  0.00     0.012 C
ATOM      9  C   UNL     1      -1.206   4.603  -0.987  1.00  0.00     0.012 C
BRANCH   6  10
ATOM     10  C   UNL     1      -0.225   0.940  -0.303  1.00  0.00     0.001 C
ATOM     11  Br  UNL     1       2.441   1.207   0.646  1.00  0.00    -0.043 Br
ATOM     12  C   UNL     1       0.771   0.393   0.414  1.00  0.00     0.057 C
ATOM     13  Br  UNL     1       0.557  -1.268   1.258  1.00  0.00    -0.043 Br
ENDBRANCH   6  10
ENDBRANCH   3   5
ENDBRANCH   2   3
ENDBRANCH   1   2
BRANCH   1  14
ATOM     14  C   UNL     1      -4.965   2.842  -2.934  1.00  0.00     0.011 A
ATOM     15  C   UNL     1      -4.346   3.909  -3.587  1.00  0.00     0.055 A
ATOM     16  C   UNL     1      -6.203   3.027  -2.318  1.00  0.00     0.009 A
ATOM     17  C   UNL     1      -4.964   5.158  -3.623  1.00  0.00     0.127 A
ATOM     18  C   UNL     1      -6.820   4.277  -2.354  1.00  0.00     0.004 A
ATOM     19  C   UNL     1      -6.201   5.343  -3.006  1.00  0.00     0.047 A
BRANCH  17  20
ATOM     20  O   UNL     1      -4.360   6.199  -4.260  1.00  0.00    -0.457 OA
BRANCH  20  21
ATOM     21  C   UNL     1      -3.277   6.795  -3.634  1.00  0.00     0.127 A
ATOM     22  C   UNL     1      -2.033   6.730  -4.232  1.00  0.00     0.047 A
ATOM     23  C   UNL     1      -3.470   7.441  -2.425  1.00  0.00     0.047 A
ATOM     24  C   UNL     1      -0.942   7.330  -3.602  1.00  0.00     0.004 A
ATOM     25  C   UNL     1      -2.380   8.040  -1.794  1.00  0.00     0.004 A
ATOM     26  C   UNL     1      -1.116   7.986  -2.383  1.00  0.00     0.000 A
ENDBRANCH  20  21
ENDBRANCH  17  20
ENDBRANCH   1  14
BRANCH   1  27
ATOM     27  C   UNL     1      -5.059   0.479  -3.643  1.00  0.00     0.113 C
ATOM     28  N   UNL     1      -5.642  -0.334  -4.232  1.00  0.00    -0.194 NA
ENDBRANCH   1  27
TORSDOF 8
ENDMDL
MODEL 2
REMARK VINA RESULT:    -6.722      3.328      5.024
REMARK INTER + INTRA:         -11.345
REMARK INTER:                  -9.943
REMARK INTRA:                  -1.403
REMARK UNBOUND:                -1.479
REMARK SMILES CC1(C)C(C=C(Br)Br)C1C(=O)OC(C#N)c1cccc(Oc2ccccc2)c1
REMARK SMILES IDX 13 1 12 2 10 3 11 4 9 5 4 6 2 7 1 8 3 9 5 10 7 11 6 12 8 13
REMARK SMILES IDX 16 14 28 15 17 16 20 17 18 18 19 19 21 20 22 21 23 22 27 23
REMARK SMILES IDX 24 24 26 25 25 26 14 27 15 28
REMARK H PARENT
REMARK Flexibility Score: inf
ROOT
ATOM      1  C   UNL     1       1.049   3.094  -3.786  1.00  0.00     0.309 C
ENDROOT
BRANCH   1   2
ATOM      2  O   UNL     1       0.763   2.087  -2.805  1.00  0.00    -0.442 OA
BRANCH   2   3
ATOM      3  C   UNL     1      -0.503   1.591  -2.833  1.00  0.00     0.311 C
ATOM      4  O   UNL     1      -1.368   1.824  -3.666  1.00  0.00    -0.252 OA
BRANCH   3   5
ATOM      5  C   UNL     1      -0.754   0.684  -1.683  1.00  0.00     0.113 C
ATOM      6  C   UNL     1      -1.251   1.279  -0.405  1.00  0.00     0.035 C
ATOM      7  C   UNL     1       0.142   0.725  -0.487  1.00  0.00    -0.014 C
ATOM      8  C   UNL     1       1.269   1.703  -0.448  1.00  0.00     0.012 C
ATOM      9  C   UNL     1       0.460  -0.578   0.167  1.00  0.00     0.012 C
BRANCH   6  10
ATOM     10  C   UNL     1      -1.473   2.716  -0.351  1.00  0.00     0.001 C
ATOM     11  Br  UNL     1      -4.120   2.574  -1.377  1.00  0.00    -0.043 Br
ATOM     12  C   UNL     1      -2.576   3.395  -0.708  1.00  0.00     0.057 C
ATOM     13  Br  UNL     1      -2.655   5.262  -0.557  1.00  0.00    -0.043 Br
ENDBRANCH   6  10
ENDBRANCH   3   5
ENDBRANCH   2   3
ENDBRANCH   1   2
BRANCH   1  14
ATOM     14  C   UNL     1       0.691   4.439  -3.252  1.00  0.00     0.011 A
ATOM     15  C   UNL     1      -0.145   5.282  -3.986  1.00  0.00     0.055 A
ATOM     16  C   UNL     1       1.191   4.855  -2.019  1.00  0.00     0.009 A
ATOM     17  C   UNL     1      -0.479   6.540  -3.486  1.00  0.00     0.127 A
ATOM     18  C   UNL     1       0.857   6.114  -1.519  1.00  0.00     0.004 A
ATOM     19  C   UNL     1       0.022   6.957  -2.253  1.00  0.00     0.047 A
BRANCH  17  20
ATOM     20  O   UNL     1      -1.294   7.363  -4.202  1.00  0.00    -0.457 OA
BRANCH  20  21
ATOM     21  C   UNL     1      -2.585   7.553  -3.737  1.00  0.00     0.127 A
ATOM     22  C   UNL     1      -2.909   8.748  -3.120  1.00  0.00     0.047 A
ATOM     23  C   UNL     1      -3.516   6.543  -3.901  1.00  0.00     0.047 A
ATOM     24  C   UNL     1      -4.209   8.940  -2.651  1.00  0.00     0.004 A
ATOM     25  C   UNL     1      -4.815   6.735  -3.431  1.00  0.00     0.004 A
ATOM     26  C   UNL     1      -5.163   7.933  -2.808  1.00  0.00     0.000 A
ENDBRANCH  20  21
ENDBRANCH  17  20
ENDBRANCH   1  14
BRANCH   1  27
ATOM     27  C   UNL     1       2.468   2.999  -4.185  1.00  0.00     0.113 C
ATOM     28  N   UNL     1       3.580   2.918  -4.506  1.00  0.00    -0.194 NA
ENDBRANCH   1  27
TORSDOF 8
ENDMDL
MODEL 3
REMARK VINA RESULT:    -6.586      2.088      4.227
REMARK INTER + INTRA:         -11.146
REMARK INTER:                 -10.270
REMARK INTRA:                  -0.875
REMARK UNBOUND:                -1.479
REMARK SMILES CC1(C)C(C=C(Br)Br)C1C(=O)OC(C#N)c1cccc(Oc2ccccc2)c1
REMARK SMILES IDX 13 1 12 2 10 3 11 4 9 5 4 6 2 7 1 8 3 9 5 10 7 11 6 12 8 13
REMARK SMILES IDX 16 14 28 15 17 16 20 17 18 18 19 19 21 20 22 21 23 22 27 23
REMARK SMILES IDX 24 24 26 25 25 26 14 27 15 28
REMARK H PARENT
REMARK Flexibility Score: inf
ROOT
ATOM      1  C   UNL     1      -4.266   1.957  -2.519  1.00  0.00     0.309 C
ENDROOT
BRANCH   1   2
ATOM      2  O   UNL     1      -2.981   2.095  -3.142  1.00  0.00    -0.442 OA
BRANCH   2   3
ATOM      3  C   UNL     1      -1.928   1.644  -2.410  1.00  0.00     0.311 C
ATOM      4  O   UNL     1      -1.705   0.489  -2.074  1.00  0.00    -0.252 OA
BRANCH   3   5
ATOM      5  C   UNL     1      -1.017   2.754  -2.030  1.00  0.00     0.113 C
ATOM      6  C   UNL     1      -0.091   2.548  -0.875  1.00  0.00     0.035 C
ATOM      7  C   UNL     1      -1.241   3.504  -0.757  1.00  0.00    -0.014 C
ATOM      8  C   UNL     1      -2.369   3.110   0.139  1.00  0.00     0.012 C
ATOM      9  C   UNL     1      -0.987   4.974  -0.783  1.00  0.00     0.012 C
BRANCH   6  10
ATOM     10  C   UNL     1      -0.120   1.267  -0.184  1.00  0.00     0.001 C
ATOM     11  Br  UNL     1       2.645   1.300   0.471  1.00  0.00    -0.043 Br
ATOM     12  C   UNL     1       0.900   0.627   0.412  1.00  0.00     0.057 C
ATOM     13  Br  UNL     1       0.643  -1.030   1.252  1.00  0.00    -0.043 Br
ENDBRANCH   6  10
ENDBRANCH   3   5
ENDBRANCH   2   3
ENDBRANCH   1   2
BRANCH   1  14
ATOM     14  C   UNL     1      -4.992   3.258  -2.556  1.00  0.00     0.011 A
ATOM     15  C   UNL     1      -6.383   3.285  -2.453  1.00  0.00     0.055 A
ATOM     16  C   UNL     1      -4.280   4.450  -2.692  1.00  0.00     0.009 A
ATOM     17  C   UNL     1      -7.062   4.502  -2.486  1.00  0.00     0.127 A
ATOM     18  C   UNL     1      -4.960   5.668  -2.727  1.00  0.00     0.004 A
ATOM     19  C   UNL     1      -6.350   5.694  -2.624  1.00  0.00     0.047 A
BRANCH  17  20
ATOM     20  O   UNL     1      -8.419   4.529  -2.386  1.00  0.00    -0.457 OA
BRANCH  20  21
ATOM     21  C   UNL     1      -8.971   4.520  -1.116  1.00  0.00     0.127 A
ATOM     22  C   UNL     1      -9.625   3.385  -0.674  1.00  0.00     0.047 A
ATOM     23  C   UNL     1      -8.853   5.647  -0.322  1.00  0.00     0.047 A
ATOM     24  C   UNL     1     -10.182   3.376   0.606  1.00  0.00     0.004 A
ATOM     25  C   UNL     1      -9.409   5.638   0.956  1.00  0.00     0.004 A
ATOM     26  C   UNL     1     -10.073   4.502   1.422  1.00  0.00     0.000 A
ENDBRANCH  20  21
ENDBRANCH  17  20
ENDBRANCH   1  14
BRANCH   1  27
ATOM     27  C   UNL     1      -5.015   0.869  -3.180  1.00  0.00     0.113 C
ATOM     28  N   UNL     1      -5.594   0.009  -3.701  1.00  0.00    -0.194 NA
ENDBRANCH   1  27
TORSDOF 8
ENDMDL
MODEL 4
REMARK VINA RESULT:    -6.530      3.438      5.379
REMARK INTER + INTRA:         -11.063
REMARK INTER:                  -9.797
REMARK INTRA:                  -1.266
REMARK UNBOUND:                -1.479
REMARK SMILES CC1(C)C(C=C(Br)Br)C1C(=O)OC(C#N)c1cccc(Oc2ccccc2)c1
REMARK SMILES IDX 13 1 12 2 10 3 11 4 9 5 4 6 2 7 1 8 3 9 5 10 7 11 6 12 8 13
REMARK SMILES IDX 16 14 28 15 17 16 20 17 18 18 19 19 21 20 22 21 23 22 27 23
REMARK SMILES IDX 24 24 26 25 25 26 14 27 15 28
REMARK H PARENT
REMARK Flexibility Score: inf
ROOT
ATOM      1  C   UNL     1      -0.454   1.649  -1.463  1.00  0.00     0.309 C
ENDROOT
BRANCH   1   2
ATOM      2  O   UNL     1      -1.690   1.969  -0.810  1.00  0.00    -0.442 OA
BRANCH   2   3
ATOM      3  C   UNL     1      -2.814   1.619  -1.491  1.00  0.00     0.311 C
ATOM      4  O   UNL     1      -3.972   1.748  -1.119  1.00  0.00    -0.252 OA
BRANCH   3   5
ATOM      5  C   UNL     1      -2.484   1.027  -2.814  1.00  0.00     0.113 C
ATOM      6  C   UNL     1      -3.243   1.501  -4.012  1.00  0.00     0.035 C
ATOM      7  C   UNL     1      -3.455   0.111  -3.487  1.00  0.00    -0.014 C
ATOM      8  C   UNL     1      -4.765  -0.180  -2.832  1.00  0.00     0.012 C
ATOM      9  C   UNL     1      -2.887  -1.054  -4.225  1.00  0.00     0.012 C
BRANCH   6  10
ATOM     10  C   UNL     1      -4.260   2.524  -3.826  1.00  0.00     0.001 C
ATOM     11  Br  UNL     1      -2.585   4.663  -4.663  1.00  0.00    -0.043 Br
ATOM     12  C   UNL     1      -4.152   3.846  -4.044  1.00  0.00     0.057 C
ATOM     13  Br  UNL     1      -5.598   4.999  -3.739  1.00  0.00    -0.043 Br
ENDBRANCH   6  10
ENDBRANCH   3   5
ENDBRANCH   2   3
ENDBRANCH   1   2
BRANCH   1  14
ATOM     14  C   UNL     1       0.080   2.853  -2.160  1.00  0.00     0.011 A
ATOM     15  C   UNL     1      -0.137   4.124  -1.624  1.00  0.00     0.055 A
ATOM     16  C   UNL     1       0.798   2.711  -3.347  1.00  0.00     0.009 A
ATOM     17  C   UNL     1       0.363   5.250  -2.277  1.00  0.00     0.127 A
ATOM     18  C   UNL     1       1.298   3.838  -3.999  1.00  0.00     0.004 A
ATOM     19  C   UNL     1       1.080   5.107  -3.464  1.00  0.00     0.047 A
BRANCH  17  20
ATOM     20  O   UNL     1       0.151   6.489  -1.755  1.00  0.00    -0.457 OA
BRANCH  20  21
ATOM     21  C   UNL     1      -0.993   7.165  -2.148  1.00  0.00     0.127 A
ATOM     22  C   UNL     1      -0.949   7.967  -3.273  1.00  0.00     0.047 A
ATOM     23  C   UNL     1      -2.151   7.020  -1.404  1.00  0.00     0.047 A
ATOM     24  C   UNL     1      -2.100   8.649  -3.669  1.00  0.00     0.004 A
ATOM     25  C   UNL     1      -3.301   7.701  -1.799  1.00  0.00     0.004 A
ATOM     26  C   UNL     1      -3.277   8.514  -2.931  1.00  0.00     0.000 A
ENDBRANCH  20  21
ENDBRANCH  17  20
ENDBRANCH   1  14
BRANCH   1  27
ATOM     27  C   UNL     1       0.494   1.099  -0.472  1.00  0.00     0.113 C
ATOM     28  N   UNL     1       1.245   0.675   0.304  1.00  0.00    -0.194 NA
ENDBRANCH   1  27
TORSDOF 8
ENDMDL
MODEL 5
REMARK VINA RESULT:    -6.463      2.351      3.282
REMARK INTER + INTRA:         -10.964
REMARK INTER:                  -9.706
REMARK INTRA:                  -1.258
REMARK UNBOUND:                -1.479
REMARK SMILES CC1(C)C(C=C(Br)Br)C1C(=O)OC(C#N)c1cccc(Oc2ccccc2)c1
REMARK SMILES IDX 13 1 12 2 10 3 11 4 9 5 4 6 2 7 1 8 3 9 5 10 7 11 6 12 8 13
REMARK SMILES IDX 16 14 28 15 17 16 20 17 18 18 19 19 21 20 22 21 23 22 27 23
REMARK SMILES IDX 24 24 26 25 25 26 14 27 15 28
REMARK H PARENT
REMARK Flexibility Score: inf
ROOT
ATOM      1  C   UNL     1      -2.527   1.205  -3.243  1.00  0.00     0.309 C
ENDROOT
BRANCH   1   2
ATOM      2  O   UNL     1      -1.396   1.903  -3.782  1.00  0.00    -0.442 OA
BRANCH   2   3
ATOM      3  C   UNL     1      -0.282   1.893  -3.003  1.00  0.00     0.311 C
ATOM      4  O   UNL     1       0.878   2.013  -3.374  1.00  0.00    -0.252 OA
BRANCH   3   5
ATOM      5  C   UNL     1      -0.625   1.711  -1.569  1.00  0.00     0.113 C
ATOM      6  C   UNL     1      -0.483   2.883  -0.652  1.00  0.00     0.035 C
ATOM      7  C   UNL     1       0.455   1.718  -0.535  1.00  0.00    -0.014 C
ATOM      8  C   UNL     1       1.871   1.936  -0.953  1.00  0.00     0.012 C
ATOM      9  C   UNL     1       0.310   0.762   0.602  1.00  0.00     0.012 C
BRANCH   6  10
ATOM     10  C   UNL     1      -0.026   4.147  -1.209  1.00  0.00     0.001 C
ATOM     11  Br  UNL     1      -2.451   5.526  -0.663  1.00  0.00    -0.043 Br
ATOM     12  C   UNL     1      -0.701   5.306  -1.289  1.00  0.00     0.057 C
ATOM     13  Br  UNL     1       0.081   6.831  -2.053  1.00  0.00    -0.043 Br
ENDBRANCH   6  10
ENDBRANCH   3   5
ENDBRANCH   2   3
ENDBRANCH   1   2
BRANCH   1  14
ATOM     14  C   UNL     1      -3.711   2.109  -3.203  1.00  0.00     0.011 A
ATOM     15  C   UNL     1      -3.707   3.298  -3.934  1.00  0.00     0.055 A
ATOM     16  C   UNL     1      -4.824   1.767  -2.435  1.00  0.00     0.009 A
ATOM     17  C   UNL     1      -4.815   4.143  -3.897  1.00  0.00     0.127 A
ATOM     18  C   UNL     1      -5.932   2.614  -2.397  1.00  0.00     0.004 A
ATOM     19  C   UNL     1      -5.928   3.802  -3.128  1.00  0.00     0.047 A
BRANCH  17  20
ATOM     20  O   UNL     1      -4.812   5.303  -4.610  1.00  0.00    -0.457 OA
BRANCH  20  21
ATOM     21  C   UNL     1      -4.352   6.446  -3.976  1.00  0.00     0.127 A
ATOM     22  C   UNL     1      -5.190   7.117  -3.106  1.00  0.00     0.047 A
ATOM     23  C   UNL     1      -3.065   6.886  -4.232  1.00  0.00     0.047 A
ATOM     24  C   UNL     1      -4.728   8.269  -2.468  1.00  0.00     0.004 A
ATOM     25  C   UNL     1      -2.603   8.037  -3.595  1.00  0.00     0.004 A
ATOM     26  C   UNL     1      -3.433   8.728  -2.712  1.00  0.00     0.000 A
ENDBRANCH  20  21
ENDBRANCH  17  20
ENDBRANCH   1  14
BRANCH   1  27
ATOM     27  C   UNL     1      -2.772  -0.017  -4.036  1.00  0.00     0.113 C
ATOM     28  N   UNL     1      -2.962  -0.983  -4.650  1.00  0.00    -0.194 NA
ENDBRANCH   1  27
TORSDOF 8
ENDMDL
