MODEL 1
REMARK VINA RESULT:    -6.470      0.000      0.000
REMARK INTER + INTRA:         -12.293
REMARK INTER:                  -9.118
REMARK INTRA:                  -3.175
REMARK UNBOUND:                -3.175
REMARK SMILES CC1(C)[C@H](C=C(Cl)Cl)[C@H]1C(=O)OCc1cccc(Oc2ccccc2)c1
REMARK SMILES IDX 13 1 12 2 10 3 11 4 9 5 4 6 2 7 1 8 3 9 5 10 7 11 6 12 8 13
REMARK SMILES IDX 14 14 26 15 15 16 18 17 16 18 17 19 19 20 20 21 21 22 25 23
REMARK SMILES IDX 22 24 24 25 23 26
REMARK H PARENT
REMARK Flexibility Score: inf
ROOT
ATOM      1  C   UNL     1      -0.451   6.738  -3.302  1.00  0.00     0.268 C 
ENDROOT
BRANCH   1   2
ATOM      2  O   UNL     1      -0.313   5.358  -2.990  1.00  0.00    -0.461 OA
BRANCH   2   3
ATOM      3  C   UNL     1      -0.038   5.068  -1.686  1.00  0.00     0.310 C 
ATOM      4  O   UNL     1       0.623   5.748  -0.912  1.00  0.00    -0.252 OA
BRANCH   3   5
ATOM      5  C   UNL     1      -0.647   3.781  -1.264  1.00  0.00     0.113 C 
ATOM      6  C   UNL     1      -1.844   3.285  -2.011  1.00  0.00     0.035 C 
ATOM      7  C   UNL     1      -1.986   3.769  -0.598  1.00  0.00    -0.014 C 
ATOM      8  C   UNL     1      -2.276   2.749   0.451  1.00  0.00     0.012 C 
ATOM      9  C   UNL     1      -2.623   5.091  -0.328  1.00  0.00     0.012 C 
BRANCH   6  10
ATOM     10  C   UNL     1      -1.926   1.863  -2.315  1.00  0.00     0.011 C 
ATOM     11  Cl  UNL     1      -0.289   1.995  -4.451  1.00  0.00    -0.071 Cl
ATOM     12  C   UNL     1      -1.319   1.203  -3.313  1.00  0.00     0.103 C 
ATOM     13  Cl  UNL     1      -1.551  -0.500  -3.504  1.00  0.00    -0.071 Cl
ENDBRANCH   6  10
ENDBRANCH   3   5
ENDBRANCH   2   3
ENDBRANCH   1   2
BRANCH   1  14
ATOM     14  C   UNL     1      -1.873   7.148  -3.125  1.00  0.00    -0.007 A 
ATOM     15  C   UNL     1      -2.895   6.381  -3.684  1.00  0.00     0.054 A 
ATOM     16  C   UNL     1      -2.182   8.299  -2.399  1.00  0.00     0.007 A 
ATOM     17  C   UNL     1      -4.226   6.764  -3.517  1.00  0.00     0.127 A 
ATOM     18  C   UNL     1      -3.512   8.682  -2.232  1.00  0.00     0.004 A 
ATOM     19  C   UNL     1      -4.534   7.915  -2.791  1.00  0.00     0.047 A 
BRANCH  17  20
ATOM     20  O   UNL     1      -5.223   6.016  -4.062  1.00  0.00    -0.457 OA
BRANCH  20  21
ATOM     21  C   UNL     1      -5.289   4.678  -3.713  1.00  0.00     0.127 A 
ATOM     22  C   UNL     1      -4.982   3.718  -4.663  1.00  0.00     0.047 A 
ATOM     23  C   UNL     1      -5.660   4.333  -2.427  1.00  0.00     0.047 A 
ATOM     24  C   UNL     1      -5.048   2.371  -4.312  1.00  0.00     0.004 A 
ATOM     25  C   UNL     1      -5.725   2.984  -2.077  1.00  0.00     0.004 A 
ATOM     26  C   UNL     1      -5.419   2.003  -3.019  1.00  0.00     0.000 A 
ENDBRANCH  20  21
ENDBRANCH  17  20
ENDBRANCH   1  14
TORSDOF 7
ENDMDL
MODEL 2
REMARK VINA RESULT:    -6.191      2.521      5.045
REMARK INTER + INTRA:         -11.898
REMARK INTER:                  -9.775
REMARK INTRA:                  -2.124
REMARK UNBOUND:                -3.175
REMARK SMILES CC1(C)[C@H](C=C(Cl)Cl)[C@H]1C(=O)OCc1cccc(Oc2ccccc2)c1
REMARK SMILES IDX 13 1 12 2 10 3 11 4 9 5 4 6 2 7 1 8 3 9 5 10 7 11 6 12 8 13
REMARK SMILES IDX 14 14 26 15 15 16 18 17 16 18 17 19 19 20 20 21 21 22 25 23
REMARK SMILES IDX 22 24 24 25 23 26
REMARK H PARENT
REMARK Flexibility Score: inf
ROOT
ATOM      1  C   UNL     1       1.162   3.712  -2.173  1.00  0.00     0.268 C 
ENDROOT
BRANCH   1   2
ATOM      2  O   UNL     1       0.205   4.711  -2.501  1.00  0.00    -0.461 OA
BRANCH   2   3
ATOM      3  C   UNL     1       0.030   5.695  -1.572  1.00  0.00     0.310 C 
ATOM      4  O   UNL     1       0.896   6.190  -0.864  1.00  0.00    -0.252 OA
BRANCH   3   5
ATOM      5  C   UNL     1      -1.385   6.137  -1.494  1.00  0.00     0.113 C 
ATOM      6  C   UNL     1      -2.269   5.897  -2.676  1.00  0.00     0.035 C 
ATOM      7  C   UNL     1      -1.855   7.294  -2.318  1.00  0.00    -0.014 C 
ATOM      8  C   UNL     1      -2.905   8.204  -1.775  1.00  0.00     0.012 C 
ATOM      9  C   UNL     1      -0.833   7.999  -3.145  1.00  0.00     0.012 C 
BRANCH   6  10
ATOM     10  C   UNL     1      -3.634   5.448  -2.437  1.00  0.00     0.011 C 
ATOM     11  Cl  UNL     1      -2.909   3.081  -1.373  1.00  0.00    -0.071 Cl
ATOM     12  C   UNL     1      -4.030   4.286  -1.896  1.00  0.00     0.103 C 
ATOM     13  Cl  UNL     1      -5.713   3.942  -1.699  1.00  0.00    -0.071 Cl
ENDBRANCH   6  10
ENDBRANCH   3   5
ENDBRANCH   2   3
ENDBRANCH   1   2
BRANCH   1  14
ATOM     14  C   UNL     1       0.491   2.381  -2.114  1.00  0.00    -0.007 A 
ATOM     15  C   UNL     1      -0.127   1.862  -3.252  1.00  0.00     0.054 A 
ATOM     16  C   UNL     1       0.483   1.656  -0.923  1.00  0.00     0.007 A 
ATOM     17  C   UNL     1      -0.754   0.617  -3.196  1.00  0.00     0.127 A 
ATOM     18  C   UNL     1      -0.144   0.412  -0.868  1.00  0.00     0.004 A 
ATOM     19  C   UNL     1      -0.762  -0.107  -2.005  1.00  0.00     0.047 A 
BRANCH  17  20
ATOM     20  O   UNL     1      -1.357   0.109  -4.306  1.00  0.00    -0.457 OA
BRANCH  20  21
ATOM     21  C   UNL     1      -2.738   0.177  -4.376  1.00  0.00     0.127 A 
ATOM     22  C   UNL     1      -3.345   1.413  -4.518  1.00  0.00     0.047 A 
ATOM     23  C   UNL     1      -3.476  -0.990  -4.303  1.00  0.00     0.047 A 
ATOM     24  C   UNL     1      -4.736   1.481  -4.589  1.00  0.00     0.004 A 
ATOM     25  C   UNL     1      -4.867  -0.920  -4.374  1.00  0.00     0.004 A 
ATOM     26  C   UNL     1      -5.497   0.315  -4.518  1.00  0.00     0.000 A 
ENDBRANCH  20  21
ENDBRANCH  17  20
ENDBRANCH   1  14
TORSDOF 7
ENDMDL
MODEL 3
REMARK VINA RESULT:    -6.155      2.671      5.960
REMARK INTER + INTRA:         -11.848
REMARK INTER:                  -8.772
REMARK INTRA:                  -3.076
REMARK UNBOUND:                -3.175
REMARK SMILES CC1(C)[C@H](C=C(Cl)Cl)[C@H]1C(=O)OCc1cccc(Oc2ccccc2)c1
REMARK SMILES IDX 13 1 12 2 10 3 11 4 9 5 4 6 2 7 1 8 3 9 5 10 7 11 6 12 8 13
REMARK SMILES IDX 14 14 26 15 15 16 18 17 16 18 17 19 19 20 20 21 21 22 25 23
REMARK SMILES IDX 22 24 24 25 23 26
REMARK H PARENT
REMARK Flexibility Score: inf
ROOT
ATOM      1  C   UNL     1      -5.266   2.899  -4.662  1.00  0.00     0.268 C 
ENDROOT
BRANCH   1   2
ATOM      2  O   UNL     1      -4.572   3.913  -3.945  1.00  0.00    -0.461 OA
BRANCH   2   3
ATOM      3  C   UNL     1      -5.062   4.205  -2.705  1.00  0.00     0.310 C 
ATOM      4  O   UNL     1      -6.203   4.014  -2.309  1.00  0.00    -0.252 OA
BRANCH   3   5
ATOM      5  C   UNL     1      -4.025   4.807  -1.829  1.00  0.00     0.113 C 
ATOM      6  C   UNL     1      -2.587   4.602  -2.188  1.00  0.00     0.035 C 
ATOM      7  C   UNL     1      -3.164   3.931  -0.976  1.00  0.00    -0.014 C 
ATOM      8  C   UNL     1      -2.714   4.420   0.360  1.00  0.00     0.012 C 
ATOM      9  C   UNL     1      -3.446   2.466  -1.003  1.00  0.00     0.012 C 
BRANCH   6  10
ATOM     10  C   UNL     1      -1.674   5.726  -2.043  1.00  0.00     0.011 C 
ATOM     11  Cl  UNL     1      -0.628   5.486  -4.514  1.00  0.00    -0.071 Cl
ATOM     12  C   UNL     1      -0.802   6.194  -2.949  1.00  0.00     0.103 C 
ATOM     13  Cl  UNL     1       0.204   7.551  -2.576  1.00  0.00    -0.071 Cl
ENDBRANCH   6  10
ENDBRANCH   3   5
ENDBRANCH   2   3
ENDBRANCH   1   2
BRANCH   1  14
ATOM     14  C   UNL     1      -4.521   1.613  -4.548  1.00  0.00    -0.007 A 
ATOM     15  C   UNL     1      -3.135   1.621  -4.390  1.00  0.00     0.054 A 
ATOM     16  C   UNL     1      -5.211   0.401  -4.598  1.00  0.00     0.007 A 
ATOM     17  C   UNL     1      -2.439   0.417  -4.284  1.00  0.00     0.127 A 
ATOM     18  C   UNL     1      -4.514  -0.802  -4.492  1.00  0.00     0.004 A 
ATOM     19  C   UNL     1      -3.128  -0.794  -4.334  1.00  0.00     0.047 A 
BRANCH  17  20
ATOM     20  O   UNL     1      -1.086   0.424  -4.130  1.00  0.00    -0.457 OA
BRANCH  20  21
ATOM     21  C   UNL     1      -0.576   0.921  -2.943  1.00  0.00     0.127 A 
ATOM     22  C   UNL     1       0.008   2.176  -2.933  1.00  0.00     0.047 A 
ATOM     23  C   UNL     1      -0.661   0.151  -1.798  1.00  0.00     0.047 A 
ATOM     24  C   UNL     1       0.523   2.675  -1.738  1.00  0.00     0.004 A 
ATOM     25  C   UNL     1      -0.146   0.652  -0.602  1.00  0.00     0.004 A 
ATOM     26  C   UNL     1       0.445   1.915  -0.572  1.00  0.00     0.000 A 
ENDBRANCH  20  21
ENDBRANCH  17  20
ENDBRANCH   1  14
TORSDOF 7
ENDMDL
MODEL 4
REMARK VINA RESULT:    -6.147      2.686      5.151
REMARK INTER + INTRA:         -11.838
REMARK INTER:                  -8.660
REMARK INTRA:                  -3.177
REMARK UNBOUND:                -3.175
REMARK SMILES CC1(C)[C@H](C=C(Cl)Cl)[C@H]1C(=O)OCc1cccc(Oc2ccccc2)c1
REMARK SMILES IDX 13 1 12 2 10 3 11 4 9 5 4 6 2 7 1 8 3 9 5 10 7 11 6 12 8 13
REMARK SMILES IDX 14 14 26 15 15 16 18 17 16 18 17 19 19 20 20 21 21 22 25 23
REMARK SMILES IDX 22 24 24 25 23 26
REMARK H PARENT
REMARK Flexibility Score: inf
ROOT
ATOM      1  C   UNL     1      -0.577   1.274  -0.750  1.00  0.00     0.268 C 
ENDROOT
BRANCH   1   2
ATOM      2  O   UNL     1      -0.414   2.686  -0.710  1.00  0.00    -0.461 OA
BRANCH   2   3
ATOM      3  C   UNL     1       0.670   3.178  -1.378  1.00  0.00     0.310 C 
ATOM      4  O   UNL     1       1.780   2.670  -1.440  1.00  0.00    -0.252 OA
BRANCH   3   5
ATOM      5  C   UNL     1       0.362   4.459  -2.064  1.00  0.00     0.113 C 
ATOM      6  C   UNL     1      -1.048   4.710  -2.496  1.00  0.00     0.035 C 
ATOM      7  C   UNL     1       0.021   4.465  -3.520  1.00  0.00    -0.014 C 
ATOM      8  C   UNL     1       0.438   5.620  -4.367  1.00  0.00     0.012 C 
ATOM      9  C   UNL     1       0.075   3.158  -4.237  1.00  0.00     0.012 C 
BRANCH   6  10
ATOM     10  C   UNL     1      -1.598   6.045  -2.309  1.00  0.00     0.011 C 
ATOM     11  Cl  UNL     1      -2.679   5.509   0.100  1.00  0.00    -0.071 Cl
ATOM     12  C   UNL     1      -2.302   6.502  -1.262  1.00  0.00     0.103 C 
ATOM     13  Cl  UNL     1      -2.872   8.134  -1.236  1.00  0.00    -0.071 Cl
ENDBRANCH   6  10
ENDBRANCH   3   5
ENDBRANCH   2   3
ENDBRANCH   1   2
BRANCH   1  14
ATOM     14  C   UNL     1      -1.471   0.910  -1.887  1.00  0.00    -0.007 A 
ATOM     15  C   UNL     1      -2.725   1.510  -2.007  1.00  0.00     0.054 A 
ATOM     16  C   UNL     1      -1.053  -0.029  -2.830  1.00  0.00     0.007 A 
ATOM     17  C   UNL     1      -3.561   1.170  -3.071  1.00  0.00     0.127 A 
ATOM     18  C   UNL     1      -1.890  -0.369  -3.893  1.00  0.00     0.004 A 
ATOM     19  C   UNL     1      -3.143   0.231  -4.013  1.00  0.00     0.047 A 
BRANCH  17  20
ATOM     20  O   UNL     1      -4.785   1.755  -3.188  1.00  0.00    -0.457 OA
BRANCH  20  21
ATOM     21  C   UNL     1      -4.829   3.127  -3.363  1.00  0.00     0.127 A 
ATOM     22  C   UNL     1      -4.241   3.682  -4.486  1.00  0.00     0.047 A 
ATOM     23  C   UNL     1      -5.458   3.908  -2.412  1.00  0.00     0.047 A 
ATOM     24  C   UNL     1      -4.285   5.064  -4.662  1.00  0.00     0.004 A 
ATOM     25  C   UNL     1      -5.502   5.292  -2.589  1.00  0.00     0.004 A 
ATOM     26  C   UNL     1      -4.916   5.869  -3.715  1.00  0.00     0.000 A 
ENDBRANCH  20  21
ENDBRANCH  17  20
ENDBRANCH   1  14
TORSDOF 7
ENDMDL
MODEL 5
REMARK VINA RESULT:    -6.037      2.414      4.697
REMARK INTER + INTRA:         -11.682
REMARK INTER:                  -9.609
REMARK INTRA:                  -2.073
REMARK UNBOUND:                -3.175
REMARK SMILES CC1(C)[C@H](C=C(Cl)Cl)[C@H]1C(=O)OCc1cccc(Oc2ccccc2)c1
REMARK SMILES IDX 13 1 12 2 10 3 11 4 9 5 4 6 2 7 1 8 3 9 5 10 7 11 6 12 8 13
REMARK SMILES IDX 14 14 26 15 15 16 18 17 16 18 17 19 19 20 20 21 21 22 25 23
REMARK SMILES IDX 22 24 24 25 23 26
REMARK H PARENT
REMARK Flexibility Score: inf
ROOT
ATOM      1  C   UNL     1      -4.758   1.667  -3.787  1.00  0.00     0.268 C 
ENDROOT
BRANCH   1   2
ATOM      2  O   UNL     1      -3.341   1.724  -3.888  1.00  0.00    -0.461 OA
BRANCH   2   3
ATOM      3  C   UNL     1      -2.649   1.133  -2.871  1.00  0.00     0.310 C 
ATOM      4  O   UNL     1      -2.837   0.014  -2.415  1.00  0.00    -0.252 OA
BRANCH   3   5
ATOM      5  C   UNL     1      -1.584   2.020  -2.338  1.00  0.00     0.113 C 
ATOM      6  C   UNL     1      -0.905   1.627  -1.064  1.00  0.00     0.035 C 
ATOM      7  C   UNL     1      -1.824   2.813  -1.092  1.00  0.00    -0.014 C 
ATOM      8  C   UNL     1      -1.206   4.164  -0.951  1.00  0.00     0.012 C 
ATOM      9  C   UNL     1      -3.179   2.717  -0.475  1.00  0.00     0.012 C 
BRANCH   6  10
ATOM     10  C   UNL     1       0.535   1.813  -0.965  1.00  0.00     0.011 C 
ATOM     11  Cl  UNL     1       0.874  -0.064   0.938  1.00  0.00    -0.071 Cl
ATOM     12  C   UNL     1       1.391   1.163  -0.162  1.00  0.00     0.103 C 
ATOM     13  Cl  UNL     1       3.079   1.538  -0.196  1.00  0.00    -0.071 Cl
ENDBRANCH   6  10
ENDBRANCH   3   5
ENDBRANCH   2   3
ENDBRANCH   1   2
BRANCH   1  14
ATOM     14  C   UNL     1      -5.279   2.995  -3.355  1.00  0.00    -0.007 A 
ATOM     15  C   UNL     1      -4.724   4.165  -3.875  1.00  0.00     0.054 A 
ATOM     16  C   UNL     1      -6.322   3.068  -2.432  1.00  0.00     0.007 A 
ATOM     17  C   UNL     1      -5.212   5.407  -3.471  1.00  0.00     0.127 A 
ATOM     18  C   UNL     1      -6.809   4.311  -2.027  1.00  0.00     0.004 A 
ATOM     19  C   UNL     1      -6.254   5.480  -2.547  1.00  0.00     0.047 A 
BRANCH  17  20
ATOM     20  O   UNL     1      -4.671   6.549  -3.978  1.00  0.00    -0.457 OA
BRANCH  20  21
ATOM     21  C   UNL     1      -3.428   6.936  -3.509  1.00  0.00     0.127 A 
ATOM     22  C   UNL     1      -3.316   7.420  -2.217  1.00  0.00     0.047 A 
ATOM     23  C   UNL     1      -2.330   6.829  -4.342  1.00  0.00     0.047 A 
ATOM     24  C   UNL     1      -2.063   7.810  -1.745  1.00  0.00     0.004 A 
ATOM     25  C   UNL     1      -1.076   7.219  -3.869  1.00  0.00     0.004 A 
ATOM     26  C   UNL     1      -0.943   7.709  -2.570  1.00  0.00     0.000 A 
ENDBRANCH  20  21
ENDBRANCH  17  20
ENDBRANCH   1  14
TORSDOF 7
ENDMDL
