MODEL 1
REMARK VINA RESULT:    -6.207      0.000      0.000
REMARK INTER + INTRA:          -7.919
REMARK INTER:                  -7.295
REMARK INTRA:                  -0.623
REMARK UNBOUND:                -0.623
REMARK SMILES Clc1ccc(C(c2ccc(Cl)cc2)C(Cl)(Cl)Cl)cc1
REMARK SMILES IDX 6 1 14 2 15 3 16 4 17 5 5 6 4 7 18 8 3 9 19 10 2 11 1 12
REMARK SMILES IDX 7 13 8 14 13 15 9 16 12 17 10 18 11 19
REMARK H PARENT
REMARK Flexibility Score: inf
ROOT
ATOM      1  C   UNL     1      -1.285   1.975  -1.191  1.00  0.00     0.101 C 
ENDROOT
BRANCH   1   2
ATOM      2  C   UNL     1      -1.717   1.114  -2.451  1.00  0.00     0.201 C 
ATOM      3  Cl  UNL     1      -1.064   1.711  -4.011  1.00  0.00    -0.083 Cl
ATOM      4  Cl  UNL     1      -3.524   1.146  -2.610  1.00  0.00    -0.083 Cl
ATOM      5  Cl  UNL     1      -1.265  -0.625  -2.277  1.00  0.00    -0.083 Cl
ENDBRANCH   1   2
BRANCH   1   6
ATOM      6  C   UNL     1      -1.703   3.406  -1.214  1.00  0.00    -0.036 A 
ATOM      7  C   UNL     1      -2.203   4.005  -0.058  1.00  0.00     0.006 A 
ATOM      8  C   UNL     1      -1.596   4.146  -2.392  1.00  0.00     0.006 A 
ATOM      9  C   UNL     1      -2.596   5.344  -0.079  1.00  0.00     0.021 A 
ATOM     10  C   UNL     1      -1.987   5.485  -2.413  1.00  0.00     0.021 A 
ATOM     11  C   UNL     1      -2.487   6.083  -1.257  1.00  0.00     0.041 A 
ATOM     12  Cl  UNL     1      -2.971   7.735  -1.283  1.00  0.00    -0.084 Cl
ENDBRANCH   1   6
BRANCH   1  13
ATOM     13  C   UNL     1       0.169   1.783  -0.692  1.00  0.00    -0.036 A 
ATOM     14  C   UNL     1       0.359   1.108   0.482  1.00  0.00     0.006 A 
ATOM     15  C   UNL     1       1.180   2.301  -1.452  1.00  0.00     0.006 A 
ATOM     16  C   UNL     1       1.668   0.937   0.931  1.00  0.00     0.021 A 
ATOM     17  C   UNL     1       2.489   2.130  -1.002  1.00  0.00     0.021 A 
ATOM     18  C   UNL     1       2.733   1.448   0.190  1.00  0.00     0.041 A 
ATOM     19  Cl  UNL     1       4.349   1.237   0.745  1.00  0.00    -0.084 Cl
ENDBRANCH   1  13
TORSDOF 3
ENDMDL
MODEL 2
REMARK VINA RESULT:    -6.185      0.109      1.600
REMARK INTER + INTRA:          -7.893
REMARK INTER:                  -7.313
REMARK INTRA:                  -0.580
REMARK UNBOUND:                -0.623
REMARK SMILES Clc1ccc(C(c2ccc(Cl)cc2)C(Cl)(Cl)Cl)cc1
REMARK SMILES IDX 6 1 14 2 15 3 16 4 17 5 5 6 4 7 18 8 3 9 19 10 2 11 1 12
REMARK SMILES IDX 7 13 8 14 13 15 9 16 12 17 10 18 11 19
REMARK H PARENT
REMARK Flexibility Score: inf
ROOT
ATOM      1  C   UNL     1      -1.289   1.947  -1.143  1.00  0.00     0.101 C 
ENDROOT
BRANCH   1   2
ATOM      2  C   UNL     1      -1.696   1.096  -2.417  1.00  0.00     0.201 C 
ATOM      3  Cl  UNL     1      -3.463   1.004  -2.709  1.00  0.00    -0.083 Cl
ATOM      4  Cl  UNL     1      -1.126  -0.614  -2.205  1.00  0.00    -0.083 Cl
ATOM      5  Cl  UNL     1      -0.905   1.698  -3.923  1.00  0.00    -0.083 Cl
ENDBRANCH   1   2
BRANCH   1   6
ATOM      6  C   UNL     1      -1.705   3.379  -1.162  1.00  0.00    -0.036 A 
ATOM      7  C   UNL     1      -2.183   3.982   0.001  1.00  0.00     0.006 A 
ATOM      8  C   UNL     1      -1.618   4.115  -2.345  1.00  0.00     0.006 A 
ATOM      9  C   UNL     1      -2.573   5.321  -0.018  1.00  0.00     0.021 A 
ATOM     10  C   UNL     1      -2.007   5.454  -2.363  1.00  0.00     0.021 A 
ATOM     11  C   UNL     1      -2.485   6.057  -1.200  1.00  0.00     0.041 A 
ATOM     12  Cl  UNL     1      -2.968   7.709  -1.223  1.00  0.00    -0.084 Cl
ENDBRANCH   1   6
BRANCH   1  13
ATOM     13  C   UNL     1       0.156   1.750  -0.617  1.00  0.00    -0.036 A 
ATOM     14  C   UNL     1       1.182   2.262  -1.360  1.00  0.00     0.006 A 
ATOM     15  C   UNL     1       0.321   1.073   0.559  1.00  0.00     0.006 A 
ATOM     16  C   UNL     1       2.482   2.082  -0.887  1.00  0.00     0.021 A 
ATOM     17  C   UNL     1       1.621   0.894   1.031  1.00  0.00     0.021 A 
ATOM     18  C   UNL     1       2.702   1.399   0.308  1.00  0.00     0.041 A 
ATOM     19  Cl  UNL     1       4.306   1.177   0.891  1.00  0.00    -0.084 Cl
ENDBRANCH   1  13
TORSDOF 3
ENDMDL
MODEL 3
REMARK VINA RESULT:    -5.988      2.312      4.825
REMARK INTER + INTRA:          -7.661
REMARK INTER:                  -7.064
REMARK INTRA:                  -0.597
REMARK UNBOUND:                -0.623
REMARK SMILES Clc1ccc(C(c2ccc(Cl)cc2)C(Cl)(Cl)Cl)cc1
REMARK SMILES IDX 6 1 14 2 15 3 16 4 17 5 5 6 4 7 18 8 3 9 19 10 2 11 1 12
REMARK SMILES IDX 7 13 8 14 13 15 9 16 12 17 10 18 11 19
REMARK H PARENT
REMARK Flexibility Score: inf
ROOT
ATOM      1  C   UNL     1      -0.131   1.479  -1.830  1.00  0.00     0.101 C 
ENDROOT
BRANCH   1   2
ATOM      2  C   UNL     1       0.268   0.939  -0.393  1.00  0.00     0.201 C 
ATOM      3  Cl  UNL     1      -0.726   1.599   0.946  1.00  0.00    -0.083 Cl
ATOM      4  Cl  UNL     1       1.983   1.406  -0.032  1.00  0.00    -0.083 Cl
ATOM      5  Cl  UNL     1       0.215  -0.863  -0.302  1.00  0.00    -0.083 Cl
ENDBRANCH   1   2
BRANCH   1   6
ATOM      6  C   UNL     1      -0.050   2.957  -2.009  1.00  0.00    -0.036 A 
ATOM      7  C   UNL     1       0.522   3.489  -3.164  1.00  0.00     0.006 A 
ATOM      8  C   UNL     1      -0.545   3.809  -1.021  1.00  0.00     0.006 A 
ATOM      9  C   UNL     1       0.600   4.872  -3.332  1.00  0.00     0.021 A 
ATOM     10  C   UNL     1      -0.469   5.191  -1.188  1.00  0.00     0.021 A 
ATOM     11  C   UNL     1       0.104   5.723  -2.344  1.00  0.00     0.041 A 
ATOM     12  Cl  UNL     1       0.200   7.429  -2.550  1.00  0.00    -0.084 Cl
ENDBRANCH   1   6
BRANCH   1  13
ATOM     13  C   UNL     1      -1.405   0.867  -2.465  1.00  0.00    -0.036 A 
ATOM     14  C   UNL     1      -2.619   1.298  -2.008  1.00  0.00     0.006 A 
ATOM     15  C   UNL     1      -1.243  -0.070  -3.447  1.00  0.00     0.006 A 
ATOM     16  C   UNL     1      -3.765   0.746  -2.579  1.00  0.00     0.021 A 
ATOM     17  C   UNL     1      -2.390  -0.623  -4.018  1.00  0.00     0.021 A 
ATOM     18  C   UNL     1      -3.651  -0.214  -3.584  1.00  0.00     0.041 A 
ATOM     19  Cl  UNL     1      -5.065  -0.896  -4.289  1.00  0.00    -0.084 Cl
ENDBRANCH   1  13
TORSDOF 3
ENDMDL
MODEL 4
REMARK VINA RESULT:    -5.837      2.423      5.984
REMARK INTER + INTRA:          -7.484
REMARK INTER:                  -6.992
REMARK INTRA:                  -0.492
REMARK UNBOUND:                -0.623
REMARK SMILES Clc1ccc(C(c2ccc(Cl)cc2)C(Cl)(Cl)Cl)cc1
REMARK SMILES IDX 6 1 14 2 15 3 16 4 17 5 5 6 4 7 18 8 3 9 19 10 2 11 1 12
REMARK SMILES IDX 7 13 8 14 13 15 9 16 12 17 10 18 11 19
REMARK H PARENT
REMARK Flexibility Score: inf
ROOT
ATOM      1  C   UNL     1      -3.012   1.638  -3.237  1.00  0.00     0.101 C 
ENDROOT
BRANCH   1   2
ATOM      2  C   UNL     1      -3.947   0.405  -3.583  1.00  0.00     0.201 C 
ATOM      3  Cl  UNL     1      -3.121  -0.927  -4.455  1.00  0.00    -0.083 Cl
ATOM      4  Cl  UNL     1      -5.296   0.959  -4.663  1.00  0.00    -0.083 Cl
ATOM      5  Cl  UNL     1      -4.739  -0.285  -2.116  1.00  0.00    -0.083 Cl
ENDBRANCH   1   2
BRANCH   1   6
ATOM      6  C   UNL     1      -2.009   1.405  -2.159  1.00  0.00    -0.036 A 
ATOM      7  C   UNL     1      -1.153   0.306  -2.228  1.00  0.00     0.006 A 
ATOM      8  C   UNL     1      -1.927   2.285  -1.079  1.00  0.00     0.006 A 
ATOM      9  C   UNL     1      -0.215   0.087  -1.219  1.00  0.00     0.021 A 
ATOM     10  C   UNL     1      -0.990   2.067  -0.070  1.00  0.00     0.021 A 
ATOM     11  C   UNL     1      -0.134   0.968  -0.140  1.00  0.00     0.041 A 
ATOM     12  Cl  UNL     1       1.023   0.697   1.106  1.00  0.00    -0.084 Cl
ENDBRANCH   1   6
BRANCH   1  13
ATOM     13  C   UNL     1      -3.708   3.018  -3.121  1.00  0.00    -0.036 A 
ATOM     14  C   UNL     1      -4.681   3.165  -2.173  1.00  0.00     0.006 A 
ATOM     15  C   UNL     1      -3.309   4.008  -3.974  1.00  0.00     0.006 A 
ATOM     16  C   UNL     1      -5.308   4.407  -2.070  1.00  0.00     0.021 A 
ATOM     17  C   UNL     1      -3.937   5.250  -3.871  1.00  0.00     0.021 A 
ATOM     18  C   UNL     1      -4.936   5.449  -2.919  1.00  0.00     0.041 A 
ATOM     19  Cl  UNL     1      -5.710   6.981  -2.792  1.00  0.00    -0.084 Cl
ENDBRANCH   1  13
TORSDOF 3
ENDMDL
MODEL 5
REMARK VINA RESULT:    -5.829      1.173      5.372
REMARK INTER + INTRA:          -7.475
REMARK INTER:                  -6.815
REMARK INTRA:                  -0.660
REMARK UNBOUND:                -0.623
REMARK SMILES Clc1ccc(C(c2ccc(Cl)cc2)C(Cl)(Cl)Cl)cc1
REMARK SMILES IDX 6 1 14 2 15 3 16 4 17 5 5 6 4 7 18 8 3 9 19 10 2 11 1 12
REMARK SMILES IDX 7 13 8 14 13 15 9 16 12 17 10 18 11 19
REMARK H PARENT
REMARK Flexibility Score: inf
ROOT
ATOM      1  C   UNL     1      -0.745   2.764  -2.456  1.00  0.00     0.101 C 
ENDROOT
BRANCH   1   2
ATOM      2  C   UNL     1      -1.794   1.797  -3.149  1.00  0.00     0.201 C 
ATOM      3  Cl  UNL     1      -3.155   1.304  -2.091  1.00  0.00    -0.083 Cl
ATOM      4  Cl  UNL     1      -0.959   0.266  -3.651  1.00  0.00    -0.083 Cl
ATOM      5  Cl  UNL     1      -2.480   2.505  -4.661  1.00  0.00    -0.083 Cl
ENDBRANCH   1   2
BRANCH   1   6
ATOM      6  C   UNL     1       0.030   2.173  -1.328  1.00  0.00    -0.036 A 
ATOM      7  C   UNL     1      -0.639   1.620  -0.236  1.00  0.00     0.006 A 
ATOM      8  C   UNL     1       1.425   2.174  -1.363  1.00  0.00     0.006 A 
ATOM      9  C   UNL     1       0.085   1.068   0.820  1.00  0.00     0.021 A 
ATOM     10  C   UNL     1       2.150   1.621  -0.307  1.00  0.00     0.021 A 
ATOM     11  C   UNL     1       1.480   1.068   0.784  1.00  0.00     0.041 A 
ATOM     12  Cl  UNL     1       2.375   0.387   2.088  1.00  0.00    -0.084 Cl
ENDBRANCH   1   6
BRANCH   1  13
ATOM     13  C   UNL     1      -1.229   4.206  -2.160  1.00  0.00    -0.036 A 
ATOM     14  C   UNL     1      -2.417   4.360  -1.502  1.00  0.00     0.006 A 
ATOM     15  C   UNL     1      -0.441   5.243  -2.576  1.00  0.00     0.006 A 
ATOM     16  C   UNL     1      -2.853   5.658  -1.238  1.00  0.00     0.021 A 
ATOM     17  C   UNL     1      -0.878   6.541  -2.312  1.00  0.00     0.021 A 
ATOM     18  C   UNL     1      -2.083   6.748  -1.642  1.00  0.00     0.041 A 
ATOM     19  Cl  UNL     1      -2.622   8.351  -1.316  1.00  0.00    -0.084 Cl
ENDBRANCH   1  13
TORSDOF 3
ENDMDL
