MODEL 1
REMARK VINA RESULT:    -6.672      0.000      0.000
REMARK INTER + INTRA:         -11.337
REMARK INTER:                  -9.792
REMARK INTRA:                  -1.545
REMARK UNBOUND:                -1.545
REMARK SMILES CC1(C)C(C=C(Br)Br)C1C(=O)OC(C#N)c1cccc(Oc2ccccc2)c1
REMARK SMILES IDX 13 1 12 2 10 3 11 4 9 5 4 6 2 7 1 8 3 9 5 10 7 11 6 12 8 13
REMARK SMILES IDX 16 14 28 15 17 16 20 17 18 18 19 19 21 20 22 21 23 22 27 23
REMARK SMILES IDX 24 24 26 25 25 26 14 27 15 28
REMARK H PARENT
REMARK Flexibility Score: inf
ROOT
ATOM      1  C   UNL     1      -4.396   1.280  -2.875  1.00  0.00     0.309 C
ENDROOT
BRANCH   1   2
ATOM      2  O   UNL     1      -3.033   1.366  -3.310  1.00  0.00    -0.442 OA
BRANCH   2   3
ATOM      3  C   UNL     1      -2.113   0.861  -2.444  1.00  0.00     0.311 C
ATOM      4  O   UNL     1      -1.406  -0.123  -2.611  1.00  0.00    -0.252 OA
BRANCH   3   5
ATOM      5  C   UNL     1      -2.043   1.668  -1.198  1.00  0.00     0.113 C
ATOM      6  C   UNL     1      -1.200   2.902  -1.198  1.00  0.00     0.035 C
ATOM      7  C   UNL     1      -0.779   1.704  -0.400  1.00  0.00    -0.014 C
ATOM      8  C   UNL     1       0.415   0.947  -0.882  1.00  0.00     0.012 C
ATOM      9  C   UNL     1      -0.915   1.718   1.086  1.00  0.00     0.012 C
BRANCH   6  10
ATOM     10  C   UNL     1      -0.498   3.260  -2.421  1.00  0.00     0.001 C
ATOM     11  Br  UNL     1       0.548   5.689  -1.379  1.00  0.00    -0.043 Br
ATOM     12  C   UNL     1       0.251   4.352  -2.654  1.00  0.00     0.057 C
ATOM     13  Br  UNL     1       1.076   4.623  -4.316  1.00  0.00    -0.043 Br
ENDBRANCH   6  10
ENDBRANCH   3   5
ENDBRANCH   2   3
ENDBRANCH   1   2
BRANCH   1  14
ATOM     14  C   UNL     1      -5.052   2.613  -2.989  1.00  0.00     0.011 A
ATOM     15  C   UNL     1      -4.471   3.612  -3.772  1.00  0.00     0.055 A
ATOM     16  C   UNL     1      -6.248   2.862  -2.316  1.00  0.00     0.009 A
ATOM     17  C   UNL     1      -5.086   4.859  -3.879  1.00  0.00     0.127 A
ATOM     18  C   UNL     1      -6.862   4.110  -2.424  1.00  0.00     0.004 A
ATOM     19  C   UNL     1      -6.281   5.108  -3.205  1.00  0.00     0.047 A
BRANCH  17  20
ATOM     20  O   UNL     1      -4.519   5.834  -4.642  1.00  0.00    -0.457 OA
BRANCH  20  21
ATOM     21  C   UNL     1      -3.559   6.638  -4.049  1.00  0.00     0.127 A
ATOM     22  C   UNL     1      -2.328   6.781  -4.663  1.00  0.00     0.047 A
ATOM     23  C   UNL     1      -3.856   7.276  -2.858  1.00  0.00     0.047 A
ATOM     24  C   UNL     1      -1.361   7.590  -4.066  1.00  0.00     0.004 A
ATOM     25  C   UNL     1      -2.889   8.083  -2.261  1.00  0.00     0.004 A
ATOM     26  C   UNL     1      -1.642   8.242  -2.864  1.00  0.00     0.000 A
ENDBRANCH  20  21
ENDBRANCH  17  20
ENDBRANCH   1  14
BRANCH   1  27
ATOM     27  C   UNL     1      -5.093   0.235  -3.653  1.00  0.00     0.113 C
ATOM     28  N   UNL     1      -5.644  -0.590  -4.254  1.00  0.00    -0.194 NA
ENDBRANCH   1  27
TORSDOF 8
ENDMDL
MODEL 2
REMARK VINA RESULT:    -6.643      1.597      2.119
REMARK INTER + INTRA:         -11.294
REMARK INTER:                 -10.096
REMARK INTRA:                  -1.198
REMARK UNBOUND:                -1.545
REMARK SMILES CC1(C)C(C=C(Br)Br)C1C(=O)OC(C#N)c1cccc(Oc2ccccc2)c1
REMARK SMILES IDX 13 1 12 2 10 3 11 4 9 5 4 6 2 7 1 8 3 9 5 10 7 11 6 12 8 13
REMARK SMILES IDX 16 14 28 15 17 16 20 17 18 18 19 19 21 20 22 21 23 22 27 23
REMARK SMILES IDX 24 24 26 25 25 26 14 27 15 28
REMARK H PARENT
REMARK Flexibility Score: inf
ROOT
ATOM      1  C   UNL     1      -4.716   1.448  -2.943  1.00  0.00     0.309 C
ENDROOT
BRANCH   1   2
ATOM      2  O   UNL     1      -3.386   1.699  -3.419  1.00  0.00    -0.442 OA
BRANCH   2   3
ATOM      3  C   UNL     1      -2.437   1.822  -2.453  1.00  0.00     0.311 C
ATOM      4  O   UNL     1      -1.847   0.917  -1.880  1.00  0.00    -0.252 OA
BRANCH   3   5
ATOM      5  C   UNL     1      -2.166   3.249  -2.139  1.00  0.00     0.113 C
ATOM      6  C   UNL     1      -1.150   3.563  -1.088  1.00  0.00     0.035 C
ATOM      7  C   UNL     1      -2.605   3.823  -0.830  1.00  0.00    -0.014 C
ATOM      8  C   UNL     1      -3.291   2.946   0.164  1.00  0.00     0.012 C
ATOM      9  C   UNL     1      -3.120   5.224  -0.844  1.00  0.00     0.012 C
BRANCH   6  10
ATOM     10  C   UNL     1      -0.469   2.458  -0.432  1.00  0.00     0.001 C
ATOM     11  Br  UNL     1       1.941   2.768  -1.907  1.00  0.00    -0.043 Br
ATOM     12  C   UNL     1       0.779   2.010  -0.650  1.00  0.00     0.057 C
ATOM     13  Br  UNL     1       1.469   0.558   0.316  1.00  0.00    -0.043 Br
ENDBRANCH   6  10
ENDBRANCH   3   5
ENDBRANCH   2   3
ENDBRANCH   1   2
BRANCH   1  14
ATOM     14  C   UNL     1      -5.481   2.725  -2.874  1.00  0.00     0.011 A
ATOM     15  C   UNL     1      -5.072   3.825  -3.629  1.00  0.00     0.055 A
ATOM     16  C   UNL     1      -6.607   2.820  -2.057  1.00  0.00     0.009 A
ATOM     17  C   UNL     1      -5.789   5.019  -3.565  1.00  0.00     0.127 A
ATOM     18  C   UNL     1      -7.323   4.015  -1.993  1.00  0.00     0.004 A
ATOM     19  C   UNL     1      -6.914   5.115  -2.746  1.00  0.00     0.047 A
BRANCH  17  20
ATOM     20  O   UNL     1      -5.390   6.094  -4.300  1.00  0.00    -0.457 OA
BRANCH  20  21
ATOM     21  C   UNL     1      -4.332   6.846  -3.817  1.00  0.00     0.127 A
ATOM     22  C   UNL     1      -3.049   6.555  -4.243  1.00  0.00     0.047 A
ATOM     23  C   UNL     1      -4.586   7.870  -2.922  1.00  0.00     0.047 A
ATOM     24  C   UNL     1      -1.983   7.313  -3.757  1.00  0.00     0.004 A
ATOM     25  C   UNL     1      -3.521   8.626  -2.435  1.00  0.00     0.004 A
ATOM     26  C   UNL     1      -2.219   8.349  -2.853  1.00  0.00     0.000 A
ENDBRANCH  20  21
ENDBRANCH  17  20
ENDBRANCH   1  14
BRANCH   1  27
ATOM     27  C   UNL     1      -5.364   0.443  -3.810  1.00  0.00     0.113 C
ATOM     28  N   UNL     1      -5.872  -0.354  -4.483  1.00  0.00    -0.194 NA
ENDBRANCH   1  27
TORSDOF 8
ENDMDL
MODEL 3
REMARK VINA RESULT:    -6.574      2.957      4.990
REMARK INTER + INTRA:         -11.193
REMARK INTER:                  -9.823
REMARK INTRA:                  -1.371
REMARK UNBOUND:                -1.545
REMARK SMILES CC1(C)C(C=C(Br)Br)C1C(=O)OC(C#N)c1cccc(Oc2ccccc2)c1
REMARK SMILES IDX 13 1 12 2 10 3 11 4 9 5 4 6 2 7 1 8 3 9 5 10 7 11 6 12 8 13
REMARK SMILES IDX 16 14 28 15 17 16 20 17 18 18 19 19 21 20 22 21 23 22 27 23
REMARK SMILES IDX 24 24 26 25 25 26 14 27 15 28
REMARK H PARENT
REMARK Flexibility Score: inf
ROOT
ATOM      1  C   UNL     1       0.914   2.561  -2.723  1.00  0.00     0.309 C
ENDROOT
BRANCH   1   2
ATOM      2  O   UNL     1      -0.297   1.919  -2.300  1.00  0.00    -0.442 OA
BRANCH   2   3
ATOM      3  C   UNL     1      -1.047   1.378  -3.297  1.00  0.00     0.311 C
ATOM      4  O   UNL     1      -0.759   0.418  -3.998  1.00  0.00    -0.252 OA
BRANCH   3   5
ATOM      5  C   UNL     1      -2.330   2.107  -3.466  1.00  0.00     0.113 C
ATOM      6  C   UNL     1      -3.138   2.413  -2.246  1.00  0.00     0.035 C
ATOM      7  C   UNL     1      -3.628   1.400  -3.239  1.00  0.00    -0.014 C
ATOM      8  C   UNL     1      -3.620  -0.031  -2.816  1.00  0.00     0.012 C
ATOM      9  C   UNL     1      -4.757   1.745  -4.152  1.00  0.00     0.012 C
BRANCH   6  10
ATOM     10  C   UNL     1      -2.624   1.990  -0.952  1.00  0.00     0.001 C
ATOM     11  Br  UNL     1      -2.930   4.545   0.258  1.00  0.00    -0.043 Br
ATOM     12  C   UNL     1      -2.476   2.731   0.160  1.00  0.00     0.057 C
ATOM     13  Br  UNL     1      -1.788   1.984   1.736  1.00  0.00    -0.043 Br
ENDBRANCH   6  10
ENDBRANCH   3   5
ENDBRANCH   2   3
ENDBRANCH   1   2
BRANCH   1  14
ATOM     14  C   UNL     1       0.633   3.973  -3.107  1.00  0.00     0.011 A
ATOM     15  C   UNL     1      -0.133   4.785  -2.269  1.00  0.00     0.055 A
ATOM     16  C   UNL     1       1.138   4.485  -4.303  1.00  0.00     0.009 A
ATOM     17  C   UNL     1      -0.394   6.107  -2.628  1.00  0.00     0.127 A
ATOM     18  C   UNL     1       0.875   5.807  -4.661  1.00  0.00     0.004 A
ATOM     19  C   UNL     1       0.109   6.618  -3.825  1.00  0.00     0.047 A
BRANCH  17  20
ATOM     20  O   UNL     1      -1.142   6.899  -1.812  1.00  0.00    -0.457 OA
BRANCH  20  21
ATOM     21  C   UNL     1      -2.423   7.226  -2.229  1.00  0.00     0.127 A
ATOM     22  C   UNL     1      -2.908   8.497  -1.982  1.00  0.00     0.047 A
ATOM     23  C   UNL     1      -3.183   6.271  -2.881  1.00  0.00     0.047 A
ATOM     24  C   UNL     1      -4.197   8.826  -2.402  1.00  0.00     0.004 A
ATOM     25  C   UNL     1      -4.471   6.600  -3.300  1.00  0.00     0.004 A
ATOM     26  C   UNL     1      -4.979   7.877  -3.062  1.00  0.00     0.000 A
ENDBRANCH  20  21
ENDBRANCH  17  20
ENDBRANCH   1  14
BRANCH   1  27
ATOM     27  C   UNL     1       1.925   2.453  -1.652  1.00  0.00     0.113 C
ATOM     28  N   UNL     1       2.712   2.363  -0.804  1.00  0.00    -0.194 NA
ENDBRANCH   1  27
TORSDOF 8
ENDMDL
MODEL 4
REMARK VINA RESULT:    -6.529      1.580      2.146
REMARK INTER + INTRA:         -11.127
REMARK INTER:                  -9.910
REMARK INTRA:                  -1.218
REMARK UNBOUND:                -1.545
REMARK SMILES CC1(C)C(C=C(Br)Br)C1C(=O)OC(C#N)c1cccc(Oc2ccccc2)c1
REMARK SMILES IDX 13 1 12 2 10 3 11 4 9 5 4 6 2 7 1 8 3 9 5 10 7 11 6 12 8 13
REMARK SMILES IDX 16 14 28 15 17 16 20 17 18 18 19 19 21 20 22 21 23 22 27 23
REMARK SMILES IDX 24 24 26 25 25 26 14 27 15 28
REMARK H PARENT
REMARK Flexibility Score: inf
ROOT
ATOM      1  C   UNL     1      -2.423   1.285  -3.288  1.00  0.00     0.309 C
ENDROOT
BRANCH   1   2
ATOM      2  O   UNL     1      -1.352   2.019  -3.897  1.00  0.00    -0.442 OA
BRANCH   2   3
ATOM      3  C   UNL     1      -0.206   2.086  -3.168  1.00  0.00     0.311 C
ATOM      4  O   UNL     1       0.919   2.328  -3.584  1.00  0.00    -0.252 OA
BRANCH   3   5
ATOM      5  C   UNL     1      -0.462   1.821  -1.729  1.00  0.00     0.113 C
ATOM      6  C   UNL     1      -0.300   2.948  -0.760  1.00  0.00     0.035 C
ATOM      7  C   UNL     1       0.674   1.806  -0.757  1.00  0.00    -0.014 C
ATOM      8  C   UNL     1       2.057   2.086  -1.240  1.00  0.00     0.012 C
ATOM      9  C   UNL     1       0.618   0.789   0.334  1.00  0.00     0.012 C
BRANCH   6  10
ATOM     10  C   UNL     1       0.092   4.251  -1.274  1.00  0.00     0.001 C
ATOM     11  Br  UNL     1      -2.396   5.488  -0.673  1.00  0.00    -0.043 Br
ATOM     12  C   UNL     1      -0.640   5.378  -1.312  1.00  0.00     0.057 C
ATOM     13  Br  UNL     1       0.062   6.965  -2.024  1.00  0.00    -0.043 Br
ENDBRANCH   6  10
ENDBRANCH   3   5
ENDBRANCH   2   3
ENDBRANCH   1   2
BRANCH   1  14
ATOM     14  C   UNL     1      -3.642   2.139  -3.205  1.00  0.00     0.011 A
ATOM     15  C   UNL     1      -3.707   3.334  -3.924  1.00  0.00     0.055 A
ATOM     16  C   UNL     1      -4.719   1.743  -2.412  1.00  0.00     0.009 A
ATOM     17  C   UNL     1      -4.848   4.132  -3.847  1.00  0.00     0.127 A
ATOM     18  C   UNL     1      -5.859   2.542  -2.335  1.00  0.00     0.004 A
ATOM     19  C   UNL     1      -5.924   3.737  -3.052  1.00  0.00     0.047 A
BRANCH  17  20
ATOM     20  O   UNL     1      -4.912   5.298  -4.547  1.00  0.00    -0.457 OA
BRANCH  20  21
ATOM     21  C   UNL     1      -4.431   6.443  -3.934  1.00  0.00     0.127 A
ATOM     22  C   UNL     1      -5.252   7.138  -3.066  1.00  0.00     0.047 A
ATOM     23  C   UNL     1      -3.140   6.862  -4.206  1.00  0.00     0.047 A
ATOM     24  C   UNL     1      -4.768   8.292  -2.448  1.00  0.00     0.004 A
ATOM     25  C   UNL     1      -2.656   8.015  -3.590  1.00  0.00     0.004 A
ATOM     26  C   UNL     1      -3.469   8.730  -2.710  1.00  0.00     0.000 A
ENDBRANCH  20  21
ENDBRANCH  17  20
ENDBRANCH   1  14
BRANCH   1  27
ATOM     27  C   UNL     1      -2.653   0.037  -4.044  1.00  0.00     0.113 C
ATOM     28  N   UNL     1      -2.843  -0.945  -4.632  1.00  0.00    -0.194 NA
ENDBRANCH   1  27
TORSDOF 8
ENDMDL
MODEL 5
REMARK VINA RESULT:    -6.413     13.832     17.584
REMARK INTER + INTRA:         -10.957
REMARK INTER:                 -10.180
REMARK INTRA:                  -0.777
REMARK UNBOUND:                -1.545
REMARK SMILES CC1(C)C(C=C(Br)Br)C1C(=O)OC(C#N)c1cccc(Oc2ccccc2)c1
REMARK SMILES IDX 13 1 12 2 10 3 11 4 9 5 4 6 2 7 1 8 3 9 5 10 7 11 6 12 8 13
REMARK SMILES IDX 16 14 28 15 17 16 20 17 18 18 19 19 21 20 22 21 23 22 27 23
REMARK SMILES IDX 24 24 26 25 25 26 14 27 15 28
REMARK H PARENT
REMARK Flexibility Score: inf
ROOT
ATOM      1  C   UNL     1       6.168  -3.413  11.491  1.00  0.00     0.309 C
ENDROOT
BRANCH   1   2
ATOM      2  O   UNL     1       5.134  -2.510  11.905  1.00  0.00    -0.442 OA
BRANCH   2   3
ATOM      3  C   UNL     1       4.599  -2.760  13.129  1.00  0.00     0.311 C
ATOM      4  O   UNL     1       5.039  -2.403  14.213  1.00  0.00    -0.252 OA
BRANCH   3   5
ATOM      5  C   UNL     1       3.351  -3.559  13.022  1.00  0.00     0.113 C
ATOM      6  C   UNL     1       2.048  -2.879  13.294  1.00  0.00     0.035 C
ATOM      7  C   UNL     1       2.576  -3.905  14.253  1.00  0.00    -0.014 C
ATOM      8  C   UNL     1       3.052  -3.419  15.581  1.00  0.00     0.012 C
ATOM      9  C   UNL     1       1.954  -5.261  14.302  1.00  0.00     0.012 C
BRANCH   6  10
ATOM     10  C   UNL     1       2.064  -1.466  13.642  1.00  0.00     0.001 C
ATOM     11  Br  UNL     1      -0.489  -0.927  12.513  1.00  0.00    -0.043 Br
ATOM     12  C   UNL     1       1.117  -0.545  13.396  1.00  0.00     0.057 C
ATOM     13  Br  UNL     1       1.339   1.238  13.934  1.00  0.00    -0.043 Br
ENDBRANCH   6  10
ENDBRANCH   3   5
ENDBRANCH   2   3
ENDBRANCH   1   2
BRANCH   1  14
ATOM     14  C   UNL     1       5.819  -4.018  10.175  1.00  0.00     0.011 A
ATOM     15  C   UNL     1       4.513  -4.440   9.925  1.00  0.00     0.055 A
ATOM     16  C   UNL     1       6.798  -4.159   9.191  1.00  0.00     0.009 A
ATOM     17  C   UNL     1       4.187  -5.005   8.692  1.00  0.00     0.127 A
ATOM     18  C   UNL     1       6.470  -4.724   7.958  1.00  0.00     0.004 A
ATOM     19  C   UNL     1       5.165  -5.148   7.709  1.00  0.00     0.047 A
BRANCH  17  20
ATOM     20  O   UNL     1       2.913  -5.419   8.448  1.00  0.00    -0.457 OA
BRANCH  20  21
ATOM     21  C   UNL     1       1.930  -4.448   8.343  1.00  0.00     0.127 A
ATOM     22  C   UNL     1       1.247  -4.054   9.479  1.00  0.00     0.047 A
ATOM     23  C   UNL     1       1.657  -3.896   7.103  1.00  0.00     0.047 A
ATOM     24  C   UNL     1       0.257  -3.077   9.374  1.00  0.00     0.004 A
ATOM     25  C   UNL     1       0.668  -2.920   6.998  1.00  0.00     0.004 A
ATOM     26  C   UNL     1      -0.032  -2.509   8.132  1.00  0.00     0.000 A
ENDBRANCH  20  21
ENDBRANCH  17  20
ENDBRANCH   1  14
BRANCH   1  27
ATOM     27  C   UNL     1       7.461  -2.698  11.464  1.00  0.00     0.113 C
ATOM     28  N   UNL     1       8.472  -2.130  11.451  1.00  0.00    -0.194 NA
ENDBRANCH   1  27
TORSDOF 8
ENDMDL
