MODEL 1
REMARK VINA RESULT:    -6.610      0.000      0.000
REMARK INTER + INTRA:          -8.275
REMARK INTER:                  -7.769
REMARK INTRA:                  -0.506
REMARK UNBOUND:                -0.506
REMARK SMILES Clc1ccc(C(c2ccc(Cl)cc2)C(Cl)(Cl)Cl)cc1
REMARK SMILES IDX 6 1 14 2 15 3 16 4 17 5 5 6 4 7 18 8 3 9 19 10 2 11 1 12
REMARK SMILES IDX 7 13 8 14 13 15 9 16 12 17 10 18 11 19
REMARK H PARENT
REMARK Flexibility Score: inf
ROOT
ATOM      1  C   UNL     1      -0.089   1.475  -1.599  1.00  0.00     0.101 C 
ENDROOT
BRANCH   1   2
ATOM      2  C   UNL     1       0.282   0.878  -0.177  1.00  0.00     0.201 C 
ATOM      3  Cl  UNL     1      -0.738   1.486   1.168  1.00  0.00    -0.083 Cl
ATOM      4  Cl  UNL     1       1.990   1.329   0.236  1.00  0.00    -0.083 Cl
ATOM      5  Cl  UNL     1       0.227  -0.925  -0.158  1.00  0.00    -0.083 Cl
ENDBRANCH   1   2
BRANCH   1   6
ATOM      6  C   UNL     1      -0.015   2.960  -1.715  1.00  0.00    -0.036 A 
ATOM      7  C   UNL     1       0.863   3.545  -2.627  1.00  0.00     0.006 A 
ATOM      8  C   UNL     1      -0.822   3.764  -0.910  1.00  0.00     0.006 A 
ATOM      9  C   UNL     1       0.933   4.934  -2.735  1.00  0.00     0.021 A 
ATOM     10  C   UNL     1      -0.752   5.153  -1.018  1.00  0.00     0.021 A 
ATOM     11  C   UNL     1       0.125   5.738  -1.930  1.00  0.00     0.041 A 
ATOM     12  Cl  UNL     1       0.212   7.452  -2.063  1.00  0.00    -0.084 Cl
ENDBRANCH   1   6
BRANCH   1  13
ATOM     13  C   UNL     1      -1.344   0.882  -2.288  1.00  0.00    -0.036 A 
ATOM     14  C   UNL     1      -2.570   1.330  -1.880  1.00  0.00     0.006 A 
ATOM     15  C   UNL     1      -1.154  -0.057  -3.263  1.00  0.00     0.006 A 
ATOM     16  C   UNL     1      -3.698   0.794  -2.500  1.00  0.00     0.021 A 
ATOM     17  C   UNL     1      -2.284  -0.593  -3.882  1.00  0.00     0.021 A 
ATOM     18  C   UNL     1      -3.556  -0.167  -3.501  1.00  0.00     0.041 A 
ATOM     19  Cl  UNL     1      -4.949  -0.828  -4.265  1.00  0.00    -0.084 Cl
ENDBRANCH   1  13
TORSDOF 3
ENDMDL
MODEL 2
REMARK VINA RESULT:    -6.510      2.227      4.762
REMARK INTER + INTRA:          -8.158
REMARK INTER:                  -7.559
REMARK INTRA:                  -0.598
REMARK UNBOUND:                -0.506
REMARK SMILES Clc1ccc(C(c2ccc(Cl)cc2)C(Cl)(Cl)Cl)cc1
REMARK SMILES IDX 6 1 14 2 15 3 16 4 17 5 5 6 4 7 18 8 3 9 19 10 2 11 1 12
REMARK SMILES IDX 7 13 8 14 13 15 9 16 12 17 10 18 11 19
REMARK H PARENT
REMARK Flexibility Score: inf
ROOT
ATOM      1  C   UNL     1      -1.403   1.672  -1.402  1.00  0.00     0.101 C 
ENDROOT
BRANCH   1   2
ATOM      2  C   UNL     1      -1.798   0.710  -2.600  1.00  0.00     0.201 C 
ATOM      3  Cl  UNL     1      -1.210   1.251  -4.206  1.00  0.00    -0.083 Cl
ATOM      4  Cl  UNL     1      -3.606   0.617  -2.724  1.00  0.00    -0.083 Cl
ATOM      5  Cl  UNL     1      -1.232  -0.983  -2.331  1.00  0.00    -0.083 Cl
ENDBRANCH   1   2
BRANCH   1   6
ATOM      6  C   UNL     1      -1.914   3.070  -1.502  1.00  0.00    -0.036 A 
ATOM      7  C   UNL     1      -2.229   3.781  -0.345  1.00  0.00     0.006 A 
ATOM      8  C   UNL     1      -2.079   3.665  -2.753  1.00  0.00     0.006 A 
ATOM      9  C   UNL     1      -2.708   5.088  -0.438  1.00  0.00     0.021 A 
ATOM     10  C   UNL     1      -2.558   4.971  -2.847  1.00  0.00     0.021 A 
ATOM     11  C   UNL     1      -2.872   5.683  -1.689  1.00  0.00     0.041 A 
ATOM     12  Cl  UNL     1      -3.464   7.295  -1.804  1.00  0.00    -0.084 Cl
ENDBRANCH   1   6
BRANCH   1  13
ATOM     13  C   UNL     1       0.068   1.605  -0.922  1.00  0.00    -0.036 A 
ATOM     14  C   UNL     1       0.339   0.889   0.210  1.00  0.00     0.006 A 
ATOM     15  C   UNL     1       1.012   2.266  -1.657  1.00  0.00     0.006 A 
ATOM     16  C   UNL     1       1.664   0.830   0.643  1.00  0.00     0.021 A 
ATOM     17  C   UNL     1       2.336   2.208  -1.223  1.00  0.00     0.021 A 
ATOM     18  C   UNL     1       2.662   1.489  -0.074  1.00  0.00     0.041 A 
ATOM     19  Cl  UNL     1       4.297   1.417   0.461  1.00  0.00    -0.084 Cl
ENDBRANCH   1  13
TORSDOF 3
ENDMDL
MODEL 3
REMARK VINA RESULT:    -6.465      2.255      4.665
REMARK INTER + INTRA:          -8.105
REMARK INTER:                  -7.520
REMARK INTRA:                  -0.585
REMARK UNBOUND:                -0.506
REMARK SMILES Clc1ccc(C(c2ccc(Cl)cc2)C(Cl)(Cl)Cl)cc1
REMARK SMILES IDX 6 1 14 2 15 3 16 4 17 5 5 6 4 7 18 8 3 9 19 10 2 11 1 12
REMARK SMILES IDX 7 13 8 14 13 15 9 16 12 17 10 18 11 19
REMARK H PARENT
REMARK Flexibility Score: inf
ROOT
ATOM      1  C   UNL     1      -1.417   1.621  -1.497  1.00  0.00     0.101 C 
ENDROOT
BRANCH   1   2
ATOM      2  C   UNL     1      -1.783   0.621  -2.673  1.00  0.00     0.201 C 
ATOM      3  Cl  UNL     1      -3.543   0.379  -2.916  1.00  0.00    -0.083 Cl
ATOM      4  Cl  UNL     1      -1.089  -1.015  -2.308  1.00  0.00    -0.083 Cl
ATOM      5  Cl  UNL     1      -1.059   1.125  -4.248  1.00  0.00    -0.083 Cl
ENDBRANCH   1   2
BRANCH   1   6
ATOM      6  C   UNL     1      -1.965   3.002  -1.630  1.00  0.00    -0.036 A 
ATOM      7  C   UNL     1      -2.125   3.569  -2.893  1.00  0.00     0.006 A 
ATOM      8  C   UNL     1      -2.315   3.726  -0.490  1.00  0.00     0.006 A 
ATOM      9  C   UNL     1      -2.636   4.862  -3.018  1.00  0.00     0.021 A 
ATOM     10  C   UNL     1      -2.826   5.017  -0.614  1.00  0.00     0.021 A 
ATOM     11  C   UNL     1      -2.987   5.585  -1.878  1.00  0.00     0.041 A 
ATOM     12  Cl  UNL     1      -3.617   7.180  -2.031  1.00  0.00    -0.084 Cl
ENDBRANCH   1   6
BRANCH   1  13
ATOM     13  C   UNL     1       0.054   1.603  -1.012  1.00  0.00    -0.036 A 
ATOM     14  C   UNL     1       0.976   2.300  -1.741  1.00  0.00     0.006 A 
ATOM     15  C   UNL     1       0.346   0.889   0.117  1.00  0.00     0.006 A 
ATOM     16  C   UNL     1       2.301   2.283  -1.304  1.00  0.00     0.021 A 
ATOM     17  C   UNL     1       1.671   0.871   0.552  1.00  0.00     0.021 A 
ATOM     18  C   UNL     1       2.649   1.569  -0.158  1.00  0.00     0.041 A 
ATOM     19  Cl  UNL     1       4.283   1.546   0.381  1.00  0.00    -0.084 Cl
ENDBRANCH   1  13
TORSDOF 3
ENDMDL
MODEL 4
REMARK VINA RESULT:    -6.140      3.487      5.638
REMARK INTER + INTRA:          -7.723
REMARK INTER:                  -7.358
REMARK INTRA:                  -0.365
REMARK UNBOUND:                -0.506
REMARK SMILES Clc1ccc(C(c2ccc(Cl)cc2)C(Cl)(Cl)Cl)cc1
REMARK SMILES IDX 6 1 14 2 15 3 16 4 17 5 5 6 4 7 18 8 3 9 19 10 2 11 1 12
REMARK SMILES IDX 7 13 8 14 13 15 9 16 12 17 10 18 11 19
REMARK H PARENT
REMARK Flexibility Score: inf
ROOT
ATOM      1  C   UNL     1      -4.624   3.839  -1.611  1.00  0.00     0.101 C 
ENDROOT
BRANCH   1   2
ATOM      2  C   UNL     1      -5.455   2.975  -2.650  1.00  0.00     0.201 C 
ATOM      3  Cl  UNL     1      -5.138   3.380  -4.367  1.00  0.00    -0.083 Cl
ATOM      4  Cl  UNL     1      -7.228   3.255  -2.380  1.00  0.00    -0.083 Cl
ATOM      5  Cl  UNL     1      -5.194   1.203  -2.428  1.00  0.00    -0.083 Cl
ENDBRANCH   1   2
BRANCH   1   6
ATOM      6  C   UNL     1      -4.471   5.283  -1.949  1.00  0.00    -0.036 A 
ATOM      7  C   UNL     1      -5.529   5.978  -2.536  1.00  0.00     0.006 A 
ATOM      8  C   UNL     1      -3.270   5.940  -1.680  1.00  0.00     0.006 A 
ATOM      9  C   UNL     1      -5.386   7.329  -2.853  1.00  0.00     0.021 A 
ATOM     10  C   UNL     1      -3.127   7.291  -1.996  1.00  0.00     0.021 A 
ATOM     11  C   UNL     1      -4.184   7.985  -2.583  1.00  0.00     0.041 A 
ATOM     12  Cl  UNL     1      -4.007   9.652  -2.975  1.00  0.00    -0.084 Cl
ENDBRANCH   1   6
BRANCH   1  13
ATOM     13  C   UNL     1      -3.313   3.205  -1.082  1.00  0.00    -0.036 A 
ATOM     14  C   UNL     1      -2.348   2.877  -1.993  1.00  0.00     0.006 A 
ATOM     15  C   UNL     1      -3.197   3.008   0.265  1.00  0.00     0.006 A 
ATOM     16  C   UNL     1      -1.169   2.305  -1.516  1.00  0.00     0.021 A 
ATOM     17  C   UNL     1      -2.017   2.434   0.742  1.00  0.00     0.021 A 
ATOM     18  C   UNL     1      -1.003   2.084  -0.149  1.00  0.00     0.041 A 
ATOM     19  Cl  UNL     1       0.452   1.377   0.439  1.00  0.00    -0.084 Cl
ENDBRANCH   1  13
TORSDOF 3
ENDMDL
MODEL 5
REMARK VINA RESULT:    -6.119      2.270      5.183
REMARK INTER + INTRA:          -7.698
REMARK INTER:                  -7.049
REMARK INTRA:                  -0.649
REMARK UNBOUND:                -0.506
REMARK SMILES Clc1ccc(C(c2ccc(Cl)cc2)C(Cl)(Cl)Cl)cc1
REMARK SMILES IDX 6 1 14 2 15 3 16 4 17 5 5 6 4 7 18 8 3 9 19 10 2 11 1 12
REMARK SMILES IDX 7 13 8 14 13 15 9 16 12 17 10 18 11 19
REMARK H PARENT
REMARK Flexibility Score: inf
ROOT
ATOM      1  C   UNL     1      -1.507   2.653  -2.477  1.00  0.00     0.101 C 
ENDROOT
BRANCH   1   2
ATOM      2  C   UNL     1      -2.666   1.593  -2.699  1.00  0.00     0.201 C 
ATOM      3  Cl  UNL     1      -2.122  -0.115  -2.652  1.00  0.00    -0.083 Cl
ATOM      4  Cl  UNL     1      -3.406   1.847  -4.336  1.00  0.00    -0.083 Cl
ATOM      5  Cl  UNL     1      -4.010   1.791  -1.512  1.00  0.00    -0.083 Cl
ENDBRANCH   1   2
BRANCH   1   6
ATOM      6  C   UNL     1      -0.412   2.229  -1.558  1.00  0.00    -0.036 A 
ATOM      7  C   UNL     1       0.918   2.471  -1.900  1.00  0.00     0.006 A 
ATOM      8  C   UNL     1      -0.717   1.589  -0.356  1.00  0.00     0.006 A 
ATOM      9  C   UNL     1       1.943   2.074  -1.042  1.00  0.00     0.021 A 
ATOM     10  C   UNL     1       0.307   1.192   0.503  1.00  0.00     0.021 A 
ATOM     11  C   UNL     1       1.637   1.434   0.160  1.00  0.00     0.041 A 
ATOM     12  Cl  UNL     1       2.902   0.943   1.220  1.00  0.00    -0.084 Cl
ENDBRANCH   1   6
BRANCH   1  13
ATOM     13  C   UNL     1      -1.952   4.119  -2.243  1.00  0.00    -0.036 A 
ATOM     14  C   UNL     1      -2.068   4.555  -0.953  1.00  0.00     0.006 A 
ATOM     15  C   UNL     1      -2.205   4.893  -3.342  1.00  0.00     0.006 A 
ATOM     16  C   UNL     1      -2.470   5.874  -0.744  1.00  0.00     0.021 A 
ATOM     17  C   UNL     1      -2.607   6.212  -3.132  1.00  0.00     0.021 A 
ATOM     18  C   UNL     1      -2.739   6.703  -1.833  1.00  0.00     0.041 A 
ATOM     19  Cl  UNL     1      -3.236   8.330  -1.575  1.00  0.00    -0.084 Cl
ENDBRANCH   1  13
TORSDOF 3
ENDMDL
