MODEL 1
REMARK VINA RESULT:    -6.629      0.000      0.000
REMARK INTER + INTRA:          -8.273
REMARK INTER:                  -7.791
REMARK INTRA:                  -0.481
REMARK UNBOUND:                -0.481
REMARK SMILES Clc1ccc(C(c2ccc(Cl)cc2)C(Cl)(Cl)Cl)cc1
REMARK SMILES IDX 6 1 14 2 15 3 16 4 17 5 5 6 4 7 18 8 3 9 19 10 2 11 1 12
REMARK SMILES IDX 7 13 8 14 13 15 9 16 12 17 10 18 11 19
REMARK H PARENT
REMARK Flexibility Score: inf
ROOT
ATOM      1  C   UNL     1      -0.069   1.469  -1.614  1.00  0.00     0.101 C 
ENDROOT
BRANCH   1   2
ATOM      2  C   UNL     1       0.320   0.851  -0.206  1.00  0.00     0.201 C 
ATOM      3  Cl  UNL     1      -0.667   1.456   1.163  1.00  0.00    -0.083 Cl
ATOM      4  Cl  UNL     1       2.041   1.275   0.181  1.00  0.00    -0.083 Cl
ATOM      5  Cl  UNL     1       0.242  -0.952  -0.207  1.00  0.00    -0.083 Cl
ENDBRANCH   1   2
BRANCH   1   6
ATOM      6  C   UNL     1       0.008   2.956  -1.709  1.00  0.00    -0.036 A 
ATOM      7  C   UNL     1       0.879   3.552  -2.620  1.00  0.00     0.006 A 
ATOM      8  C   UNL     1      -0.791   3.750  -0.886  1.00  0.00     0.006 A 
ATOM      9  C   UNL     1       0.952   4.942  -2.709  1.00  0.00     0.021 A 
ATOM     10  C   UNL     1      -0.719   5.140  -0.975  1.00  0.00     0.021 A 
ATOM     11  C   UNL     1       0.152   5.736  -1.886  1.00  0.00     0.041 A 
ATOM     12  Cl  UNL     1       0.242   7.451  -1.995  1.00  0.00    -0.084 Cl
ENDBRANCH   1   6
BRANCH   1  13
ATOM     13  C   UNL     1      -1.334   0.889  -2.294  1.00  0.00    -0.036 A 
ATOM     14  C   UNL     1      -2.552   1.351  -1.880  1.00  0.00     0.006 A 
ATOM     15  C   UNL     1      -1.160  -0.053  -3.269  1.00  0.00     0.006 A 
ATOM     16  C   UNL     1      -3.690   0.827  -2.492  1.00  0.00     0.021 A 
ATOM     17  C   UNL     1      -2.300  -0.577  -3.881  1.00  0.00     0.021 A 
ATOM     18  C   UNL     1      -3.565  -0.137  -3.492  1.00  0.00     0.041 A 
ATOM     19  Cl  UNL     1      -4.970  -0.784  -4.247  1.00  0.00    -0.084 Cl
ENDBRANCH   1  13
TORSDOF 3
ENDMDL
MODEL 2
REMARK VINA RESULT:    -6.605      2.226      4.718
REMARK INTER + INTRA:          -8.245
REMARK INTER:                  -7.638
REMARK INTRA:                  -0.607
REMARK UNBOUND:                -0.481
REMARK SMILES Clc1ccc(C(c2ccc(Cl)cc2)C(Cl)(Cl)Cl)cc1
REMARK SMILES IDX 6 1 14 2 15 3 16 4 17 5 5 6 4 7 18 8 3 9 19 10 2 11 1 12
REMARK SMILES IDX 7 13 8 14 13 15 9 16 12 17 10 18 11 19
REMARK H PARENT
REMARK Flexibility Score: inf
ROOT
ATOM      1  C   UNL     1      -1.394   1.967  -1.323  1.00  0.00     0.101 C 
ENDROOT
BRANCH   1   2
ATOM      2  C   UNL     1      -1.822   1.091  -2.573  1.00  0.00     0.201 C 
ATOM      3  Cl  UNL     1      -3.592   1.016  -2.851  1.00  0.00    -0.083 Cl
ATOM      4  Cl  UNL     1      -1.274  -0.621  -2.322  1.00  0.00    -0.083 Cl
ATOM      5  Cl  UNL     1      -1.033   1.645  -4.099  1.00  0.00    -0.083 Cl
ENDBRANCH   1   2
BRANCH   1   6
ATOM      6  C   UNL     1      -1.830   3.393  -1.355  1.00  0.00    -0.036 A 
ATOM      7  C   UNL     1      -2.130   4.057  -0.165  1.00  0.00     0.006 A 
ATOM      8  C   UNL     1      -1.940   4.063  -2.574  1.00  0.00     0.006 A 
ATOM      9  C   UNL     1      -2.540   5.390  -0.194  1.00  0.00     0.021 A 
ATOM     10  C   UNL     1      -2.348   5.396  -2.603  1.00  0.00     0.021 A 
ATOM     11  C   UNL     1      -2.648   6.059  -1.414  1.00  0.00     0.041 A 
ATOM     12  Cl  UNL     1      -3.154   7.705  -1.450  1.00  0.00    -0.084 Cl
ENDBRANCH   1   6
BRANCH   1  13
ATOM     13  C   UNL     1       0.066   1.798  -0.832  1.00  0.00    -0.036 A 
ATOM     14  C   UNL     1       0.277   1.078   0.310  1.00  0.00     0.006 A 
ATOM     15  C   UNL     1       1.060   2.379  -1.569  1.00  0.00     0.006 A 
ATOM     16  C   UNL     1       1.591   0.927   0.753  1.00  0.00     0.021 A 
ATOM     17  C   UNL     1       2.374   2.229  -1.126  1.00  0.00     0.021 A 
ATOM     18  C   UNL     1       2.640   1.502   0.035  1.00  0.00     0.041 A 
ATOM     19  Cl  UNL     1       4.262   1.317   0.581  1.00  0.00    -0.084 Cl
ENDBRANCH   1  13
TORSDOF 3
ENDMDL
MODEL 3
REMARK VINA RESULT:    -6.499      2.251      4.677
REMARK INTER + INTRA:          -8.120
REMARK INTER:                  -7.529
REMARK INTRA:                  -0.591
REMARK UNBOUND:                -0.481
REMARK SMILES Clc1ccc(C(c2ccc(Cl)cc2)C(Cl)(Cl)Cl)cc1
REMARK SMILES IDX 6 1 14 2 15 3 16 4 17 5 5 6 4 7 18 8 3 9 19 10 2 11 1 12
REMARK SMILES IDX 7 13 8 14 13 15 9 16 12 17 10 18 11 19
REMARK H PARENT
REMARK Flexibility Score: inf
ROOT
ATOM      1  C   UNL     1      -1.397   1.617  -1.494  1.00  0.00     0.101 C 
ENDROOT
BRANCH   1   2
ATOM      2  C   UNL     1      -1.756   0.622  -2.676  1.00  0.00     0.201 C 
ATOM      3  Cl  UNL     1      -1.175   1.151  -4.288  1.00  0.00    -0.083 Cl
ATOM      4  Cl  UNL     1      -3.559   0.473  -2.809  1.00  0.00    -0.083 Cl
ATOM      5  Cl  UNL     1      -1.142  -1.047  -2.373  1.00  0.00    -0.083 Cl
ENDBRANCH   1   2
BRANCH   1   6
ATOM      6  C   UNL     1      -1.935   3.002  -1.631  1.00  0.00    -0.036 A 
ATOM      7  C   UNL     1      -2.058   3.580  -2.893  1.00  0.00     0.006 A 
ATOM      8  C   UNL     1      -2.312   3.719  -0.495  1.00  0.00     0.006 A 
ATOM      9  C   UNL     1      -2.559   4.876  -3.021  1.00  0.00     0.021 A 
ATOM     10  C   UNL     1      -2.814   5.014  -0.623  1.00  0.00     0.021 A 
ATOM     11  C   UNL     1      -2.938   5.592  -1.885  1.00  0.00     0.041 A 
ATOM     12  Cl  UNL     1      -3.556   7.191  -2.043  1.00  0.00    -0.084 Cl
ENDBRANCH   1   6
BRANCH   1  13
ATOM     13  C   UNL     1       0.069   1.590  -0.992  1.00  0.00    -0.036 A 
ATOM     14  C   UNL     1       0.343   0.881   0.143  1.00  0.00     0.006 A 
ATOM     15  C   UNL     1       1.004   2.278  -1.714  1.00  0.00     0.006 A 
ATOM     16  C   UNL     1       1.662   0.858   0.595  1.00  0.00     0.021 A 
ATOM     17  C   UNL     1       2.323   2.255  -1.261  1.00  0.00     0.021 A 
ATOM     18  C   UNL     1       2.653   1.545  -0.107  1.00  0.00     0.041 A 
ATOM     19  Cl  UNL     1       4.281   1.517   0.451  1.00  0.00    -0.084 Cl
ENDBRANCH   1  13
TORSDOF 3
ENDMDL
MODEL 4
REMARK VINA RESULT:    -6.152      3.154      5.377
REMARK INTER + INTRA:          -7.712
REMARK INTER:                  -7.349
REMARK INTRA:                  -0.363
REMARK UNBOUND:                -0.481
REMARK SMILES Clc1ccc(C(c2ccc(Cl)cc2)C(Cl)(Cl)Cl)cc1
REMARK SMILES IDX 6 1 14 2 15 3 16 4 17 5 5 6 4 7 18 8 3 9 19 10 2 11 1 12
REMARK SMILES IDX 7 13 8 14 13 15 9 16 12 17 10 18 11 19
REMARK H PARENT
REMARK Flexibility Score: inf
ROOT
ATOM      1  C   UNL     1      -4.228   3.479  -1.407  1.00  0.00     0.101 C 
ENDROOT
BRANCH   1   2
ATOM      2  C   UNL     1      -4.982   2.588  -2.480  1.00  0.00     0.201 C 
ATOM      3  Cl  UNL     1      -4.482   2.892  -4.175  1.00  0.00    -0.083 Cl
ATOM      4  Cl  UNL     1      -6.761   2.934  -2.405  1.00  0.00    -0.083 Cl
ATOM      5  Cl  UNL     1      -4.807   0.823  -2.147  1.00  0.00    -0.083 Cl
ENDBRANCH   1   2
BRANCH   1   6
ATOM      6  C   UNL     1      -4.102   4.926  -1.744  1.00  0.00    -0.036 A 
ATOM      7  C   UNL     1      -5.118   5.568  -2.452  1.00  0.00     0.006 A 
ATOM      8  C   UNL     1      -2.967   5.638  -1.353  1.00  0.00     0.006 A 
ATOM      9  C   UNL     1      -4.999   6.922  -2.768  1.00  0.00     0.021 A 
ATOM     10  C   UNL     1      -2.849   6.991  -1.669  1.00  0.00     0.021 A 
ATOM     11  C   UNL     1      -3.865   7.633  -2.377  1.00  0.00     0.041 A 
ATOM     12  Cl  UNL     1      -3.718   9.303  -2.767  1.00  0.00    -0.084 Cl
ENDBRANCH   1   6
BRANCH   1  13
ATOM     13  C   UNL     1      -2.925   2.886  -0.813  1.00  0.00    -0.036 A 
ATOM     14  C   UNL     1      -1.912   2.575  -1.676  1.00  0.00     0.006 A 
ATOM     15  C   UNL     1      -2.864   2.706   0.541  1.00  0.00     0.006 A 
ATOM     16  C   UNL     1      -0.741   2.040  -1.141  1.00  0.00     0.021 A 
ATOM     17  C   UNL     1      -1.693   2.170   1.076  1.00  0.00     0.021 A 
ATOM     18  C   UNL     1      -0.630   1.838   0.235  1.00  0.00     0.041 A 
ATOM     19  Cl  UNL     1       0.815   1.177   0.895  1.00  0.00    -0.084 Cl
ENDBRANCH   1  13
TORSDOF 3
ENDMDL
MODEL 5
REMARK VINA RESULT:    -6.146      3.749      6.732
REMARK INTER + INTRA:          -7.705
REMARK INTER:                  -7.243
REMARK INTRA:                  -0.462
REMARK UNBOUND:                -0.481
REMARK SMILES Clc1ccc(C(c2ccc(Cl)cc2)C(Cl)(Cl)Cl)cc1
REMARK SMILES IDX 6 1 14 2 15 3 16 4 17 5 5 6 4 7 18 8 3 9 19 10 2 11 1 12
REMARK SMILES IDX 7 13 8 14 13 15 9 16 12 17 10 18 11 19
REMARK H PARENT
REMARK Flexibility Score: inf
ROOT
ATOM      1  C   UNL     1      -4.206   4.217  -2.762  1.00  0.00     0.101 C 
ENDROOT
BRANCH   1   2
ATOM      2  C   UNL     1      -5.608   3.512  -2.994  1.00  0.00     0.201 C 
ATOM      3  Cl  UNL     1      -6.880   3.998  -1.827  1.00  0.00    -0.083 Cl
ATOM      4  Cl  UNL     1      -5.414   1.717  -2.816  1.00  0.00    -0.083 Cl
ATOM      5  Cl  UNL     1      -6.239   3.779  -4.663  1.00  0.00    -0.083 Cl
ENDBRANCH   1   2
BRANCH   1   6
ATOM      6  C   UNL     1      -3.313   3.563  -1.762  1.00  0.00    -0.036 A 
ATOM      7  C   UNL     1      -3.650   3.580  -0.409  1.00  0.00     0.006 A 
ATOM      8  C   UNL     1      -2.138   2.937  -2.180  1.00  0.00     0.006 A 
ATOM      9  C   UNL     1      -2.814   2.970   0.526  1.00  0.00     0.021 A 
ATOM     10  C   UNL     1      -1.303   2.326  -1.246  1.00  0.00     0.021 A 
ATOM     11  C   UNL     1      -1.640   2.343   0.107  1.00  0.00     0.041 A 
ATOM     12  Cl  UNL     1      -0.608   1.590   1.261  1.00  0.00    -0.084 Cl
ENDBRANCH   1   6
BRANCH   1  13
ATOM     13  C   UNL     1      -4.226   5.761  -2.629  1.00  0.00    -0.036 A 
ATOM     14  C   UNL     1      -5.369   6.419  -2.987  1.00  0.00     0.006 A 
ATOM     15  C   UNL     1      -3.098   6.377  -2.164  1.00  0.00     0.006 A 
ATOM     16  C   UNL     1      -5.386   7.808  -2.869  1.00  0.00     0.021 A 
ATOM     17  C   UNL     1      -3.115   7.767  -2.047  1.00  0.00     0.021 A 
ATOM     18  C   UNL     1      -4.259   8.482  -2.398  1.00  0.00     0.041 A 
ATOM     19  Cl  UNL     1      -4.279  10.197  -2.254  1.00  0.00    -0.084 Cl
ENDBRANCH   1  13
TORSDOF 3
ENDMDL
