MODEL 1
REMARK VINA RESULT:    -6.641      0.000      0.000
REMARK INTER + INTRA:          -8.292
REMARK INTER:                  -7.806
REMARK INTRA:                  -0.487
REMARK UNBOUND:                -0.487
REMARK SMILES Clc1ccc(C(c2ccc(Cl)cc2)C(Cl)(Cl)Cl)cc1
REMARK SMILES IDX 6 1 14 2 15 3 16 4 17 5 5 6 4 7 18 8 3 9 19 10 2 11 1 12
REMARK SMILES IDX 7 13 8 14 13 15 9 16 12 17 10 18 11 19
REMARK H PARENT
REMARK Flexibility Score: inf
ROOT
ATOM      1  C   UNL     1      -0.087   1.453  -1.592  1.00  0.00     0.101 C 
ENDROOT
BRANCH   1   2
ATOM      2  C   UNL     1       0.285   0.840  -0.177  1.00  0.00     0.201 C 
ATOM      3  Cl  UNL     1      -0.720   1.447   1.178  1.00  0.00    -0.083 Cl
ATOM      4  Cl  UNL     1       2.000   1.268   0.230  1.00  0.00    -0.083 Cl
ATOM      5  Cl  UNL     1       0.210  -0.963  -0.173  1.00  0.00    -0.083 Cl
ENDBRANCH   1   2
BRANCH   1   6
ATOM      6  C   UNL     1      -0.003   2.938  -1.694  1.00  0.00    -0.036 A 
ATOM      7  C   UNL     1       0.888   3.526  -2.591  1.00  0.00     0.006 A 
ATOM      8  C   UNL     1      -0.814   3.740  -0.890  1.00  0.00     0.006 A 
ATOM      9  C   UNL     1       0.967   4.916  -2.686  1.00  0.00     0.021 A 
ATOM     10  C   UNL     1      -0.735   5.129  -0.985  1.00  0.00     0.021 A 
ATOM     11  C   UNL     1       0.156   5.717  -1.883  1.00  0.00     0.041 A 
ATOM     12  Cl  UNL     1       0.254   7.432  -1.999  1.00  0.00    -0.084 Cl
ENDBRANCH   1   6
BRANCH   1  13
ATOM     13  C   UNL     1      -1.348   0.875  -2.282  1.00  0.00    -0.036 A 
ATOM     14  C   UNL     1      -2.568   1.349  -1.886  1.00  0.00     0.006 A 
ATOM     15  C   UNL     1      -1.170  -0.077  -3.247  1.00  0.00     0.006 A 
ATOM     16  C   UNL     1      -3.703   0.827  -2.507  1.00  0.00     0.021 A 
ATOM     17  C   UNL     1      -2.305  -0.599  -3.866  1.00  0.00     0.021 A 
ATOM     18  C   UNL     1      -3.572  -0.146  -3.497  1.00  0.00     0.041 A 
ATOM     19  Cl  UNL     1      -4.972  -0.791  -4.262  1.00  0.00    -0.084 Cl
ENDBRANCH   1  13
TORSDOF 3
ENDMDL
MODEL 2
REMARK VINA RESULT:    -6.620      0.054      1.569
REMARK INTER + INTRA:          -8.268
REMARK INTER:                  -7.781
REMARK INTRA:                  -0.487
REMARK UNBOUND:                -0.487
REMARK SMILES Clc1ccc(C(c2ccc(Cl)cc2)C(Cl)(Cl)Cl)cc1
REMARK SMILES IDX 6 1 14 2 15 3 16 4 17 5 5 6 4 7 18 8 3 9 19 10 2 11 1 12
REMARK SMILES IDX 7 13 8 14 13 15 9 16 12 17 10 18 11 19
REMARK H PARENT
REMARK Flexibility Score: inf
ROOT
ATOM      1  C   UNL     1      -0.080   1.468  -1.624  1.00  0.00     0.101 C 
ENDROOT
BRANCH   1   2
ATOM      2  C   UNL     1       0.296   0.870  -0.204  1.00  0.00     0.201 C 
ATOM      3  Cl  UNL     1      -0.715   1.481   1.145  1.00  0.00    -0.083 Cl
ATOM      4  Cl  UNL     1       2.008   1.314   0.201  1.00  0.00    -0.083 Cl
ATOM      5  Cl  UNL     1       0.234  -0.934  -0.185  1.00  0.00    -0.083 Cl
ENDBRANCH   1   2
BRANCH   1   6
ATOM      6  C   UNL     1      -0.007   2.954  -1.738  1.00  0.00    -0.036 A 
ATOM      7  C   UNL     1      -0.804   3.756  -0.922  1.00  0.00     0.006 A 
ATOM      8  C   UNL     1       0.858   3.541  -2.662  1.00  0.00     0.006 A 
ATOM      9  C   UNL     1      -0.736   5.145  -1.030  1.00  0.00     0.021 A 
ATOM     10  C   UNL     1       0.927   4.930  -2.769  1.00  0.00     0.021 A 
ATOM     11  C   UNL     1       0.129   5.732  -1.953  1.00  0.00     0.041 A 
ATOM     12  Cl  UNL     1       0.212   7.446  -2.086  1.00  0.00    -0.084 Cl
ENDBRANCH   1   6
BRANCH   1  13
ATOM     13  C   UNL     1      -1.336   0.876  -2.310  1.00  0.00    -0.036 A 
ATOM     14  C   UNL     1      -1.151  -0.083  -3.266  1.00  0.00     0.006 A 
ATOM     15  C   UNL     1      -2.559   1.347  -1.921  1.00  0.00     0.006 A 
ATOM     16  C   UNL     1      -2.283  -0.615  -3.884  1.00  0.00     0.021 A 
ATOM     17  C   UNL     1      -3.691   0.815  -2.540  1.00  0.00     0.021 A 
ATOM     18  C   UNL     1      -3.552  -0.167  -3.521  1.00  0.00     0.041 A 
ATOM     19  Cl  UNL     1      -4.949  -0.822  -4.284  1.00  0.00    -0.084 Cl
ENDBRANCH   1  13
TORSDOF 3
ENDMDL
MODEL 3
REMARK VINA RESULT:    -6.471      2.264      4.643
REMARK INTER + INTRA:          -8.093
REMARK INTER:                  -7.502
REMARK INTRA:                  -0.591
REMARK UNBOUND:                -0.487
REMARK SMILES Clc1ccc(C(c2ccc(Cl)cc2)C(Cl)(Cl)Cl)cc1
REMARK SMILES IDX 6 1 14 2 15 3 16 4 17 5 5 6 4 7 18 8 3 9 19 10 2 11 1 12
REMARK SMILES IDX 7 13 8 14 13 15 9 16 12 17 10 18 11 19
REMARK H PARENT
REMARK Flexibility Score: inf
ROOT
ATOM      1  C   UNL     1      -1.419   1.611  -1.551  1.00  0.00     0.101 C 
ENDROOT
BRANCH   1   2
ATOM      2  C   UNL     1      -1.764   0.633  -2.751  1.00  0.00     0.201 C 
ATOM      3  Cl  UNL     1      -3.520   0.426  -3.052  1.00  0.00    -0.083 Cl
ATOM      4  Cl  UNL     1      -1.112  -1.020  -2.384  1.00  0.00    -0.083 Cl
ATOM      5  Cl  UNL     1      -0.982   1.143  -4.295  1.00  0.00    -0.083 Cl
ENDBRANCH   1   2
BRANCH   1   6
ATOM      6  C   UNL     1      -1.961   2.995  -1.670  1.00  0.00    -0.036 A 
ATOM      7  C   UNL     1      -2.168   3.557  -2.929  1.00  0.00     0.006 A 
ATOM      8  C   UNL     1      -2.261   3.728  -0.521  1.00  0.00     0.006 A 
ATOM      9  C   UNL     1      -2.675   4.852  -3.041  1.00  0.00     0.021 A 
ATOM     10  C   UNL     1      -2.768   5.023  -0.632  1.00  0.00     0.021 A 
ATOM     11  C   UNL     1      -2.974   5.585  -1.891  1.00  0.00     0.041 A 
ATOM     12  Cl  UNL     1      -3.599   7.183  -2.029  1.00  0.00    -0.084 Cl
ENDBRANCH   1   6
BRANCH   1  13
ATOM     13  C   UNL     1       0.044   1.582  -1.039  1.00  0.00    -0.036 A 
ATOM     14  C   UNL     1       0.317   0.838   0.074  1.00  0.00     0.006 A 
ATOM     15  C   UNL     1       0.977   2.304  -1.730  1.00  0.00     0.006 A 
ATOM     16  C   UNL     1       1.633   0.814   0.535  1.00  0.00     0.021 A 
ATOM     17  C   UNL     1       2.293   2.281  -1.268  1.00  0.00     0.021 A 
ATOM     18  C   UNL     1       2.621   1.535  -0.136  1.00  0.00     0.041 A 
ATOM     19  Cl  UNL     1       4.246   1.506   0.433  1.00  0.00    -0.084 Cl
ENDBRANCH   1  13
TORSDOF 3
ENDMDL
MODEL 4
REMARK VINA RESULT:    -6.144      1.968      5.913
REMARK INTER + INTRA:          -7.709
REMARK INTER:                  -7.099
REMARK INTRA:                  -0.609
REMARK UNBOUND:                -0.487
REMARK SMILES Clc1ccc(C(c2ccc(Cl)cc2)C(Cl)(Cl)Cl)cc1
REMARK SMILES IDX 6 1 14 2 15 3 16 4 17 5 5 6 4 7 18 8 3 9 19 10 2 11 1 12
REMARK SMILES IDX 7 13 8 14 13 15 9 16 12 17 10 18 11 19
REMARK H PARENT
REMARK Flexibility Score: inf
ROOT
ATOM      1  C   UNL     1      -1.966   3.101  -1.950  1.00  0.00     0.101 C 
ENDROOT
BRANCH   1   2
ATOM      2  C   UNL     1      -2.755   4.271  -1.225  1.00  0.00     0.201 C 
ATOM      3  Cl  UNL     1      -3.876   5.177  -2.292  1.00  0.00    -0.083 Cl
ATOM      4  Cl  UNL     1      -1.569   5.485  -0.583  1.00  0.00    -0.083 Cl
ATOM      5  Cl  UNL     1      -3.685   3.683   0.205  1.00  0.00    -0.083 Cl
ENDBRANCH   1   2
BRANCH   1   6
ATOM      6  C   UNL     1      -2.812   2.052  -2.590  1.00  0.00    -0.036 A 
ATOM      7  C   UNL     1      -4.051   1.725  -2.040  1.00  0.00     0.006 A 
ATOM      8  C   UNL     1      -2.363   1.397  -3.737  1.00  0.00     0.006 A 
ATOM      9  C   UNL     1      -4.842   0.743  -2.638  1.00  0.00     0.021 A 
ATOM     10  C   UNL     1      -3.153   0.416  -4.335  1.00  0.00     0.021 A 
ATOM     11  C   UNL     1      -4.392   0.089  -3.785  1.00  0.00     0.041 A 
ATOM     12  Cl  UNL     1      -5.368  -1.123  -4.522  1.00  0.00    -0.084 Cl
ENDBRANCH   1   6
BRANCH   1  13
ATOM     13  C   UNL     1      -0.755   2.510  -1.185  1.00  0.00    -0.036 A 
ATOM     14  C   UNL     1       0.496   2.768  -1.670  1.00  0.00     0.006 A 
ATOM     15  C   UNL     1      -1.007   1.764  -0.068  1.00  0.00     0.006 A 
ATOM     16  C   UNL     1       1.585   2.235  -0.982  1.00  0.00     0.021 A 
ATOM     17  C   UNL     1       0.082   1.230   0.620  1.00  0.00     0.021 A 
ATOM     18  C   UNL     1       1.379   1.466   0.163  1.00  0.00     0.041 A 
ATOM     19  Cl  UNL     1       2.723   0.807   1.013  1.00  0.00    -0.084 Cl
ENDBRANCH   1  13
TORSDOF 3
ENDMDL
MODEL 5
REMARK VINA RESULT:    -6.131      2.282      5.334
REMARK INTER + INTRA:          -7.693
REMARK INTER:                  -7.042
REMARK INTRA:                  -0.650
REMARK UNBOUND:                -0.487
REMARK SMILES Clc1ccc(C(c2ccc(Cl)cc2)C(Cl)(Cl)Cl)cc1
REMARK SMILES IDX 6 1 14 2 15 3 16 4 17 5 5 6 4 7 18 8 3 9 19 10 2 11 1 12
REMARK SMILES IDX 7 13 8 14 13 15 9 16 12 17 10 18 11 19
REMARK H PARENT
REMARK Flexibility Score: inf
ROOT
ATOM      1  C   UNL     1      -1.553   2.649  -2.467  1.00  0.00     0.101 C 
ENDROOT
BRANCH   1   2
ATOM      2  C   UNL     1      -2.718   1.595  -2.685  1.00  0.00     0.201 C 
ATOM      3  Cl  UNL     1      -2.185  -0.116  -2.634  1.00  0.00    -0.083 Cl
ATOM      4  Cl  UNL     1      -3.457   1.849  -4.323  1.00  0.00    -0.083 Cl
ATOM      5  Cl  UNL     1      -4.060   1.806  -1.498  1.00  0.00    -0.083 Cl
ENDBRANCH   1   2
BRANCH   1   6
ATOM      6  C   UNL     1      -0.463   2.224  -1.541  1.00  0.00    -0.036 A 
ATOM      7  C   UNL     1      -0.778   1.622  -0.324  1.00  0.00     0.006 A 
ATOM      8  C   UNL     1       0.871   2.430  -1.893  1.00  0.00     0.006 A 
ATOM      9  C   UNL     1       0.241   1.225   0.543  1.00  0.00     0.021 A 
ATOM     10  C   UNL     1       1.890   2.033  -1.027  1.00  0.00     0.021 A 
ATOM     11  C   UNL     1       1.575   1.431   0.191  1.00  0.00     0.041 A 
ATOM     12  Cl  UNL     1       2.833   0.942   1.260  1.00  0.00    -0.084 Cl
ENDBRANCH   1   6
BRANCH   1  13
ATOM     13  C   UNL     1      -1.988   4.120  -2.245  1.00  0.00    -0.036 A 
ATOM     14  C   UNL     1      -2.259   4.880  -3.348  1.00  0.00     0.006 A 
ATOM     15  C   UNL     1      -2.074   4.574  -0.959  1.00  0.00     0.006 A 
ATOM     16  C   UNL     1      -2.649   6.204  -3.148  1.00  0.00     0.021 A 
ATOM     17  C   UNL     1      -2.463   5.898  -0.759  1.00  0.00     0.021 A 
ATOM     18  C   UNL     1      -2.752   6.713  -1.853  1.00  0.00     0.041 A 
ATOM     19  Cl  UNL     1      -3.232   8.347  -1.606  1.00  0.00    -0.084 Cl
ENDBRANCH   1  13
TORSDOF 3
ENDMDL
