MODEL 1
REMARK VINA RESULT:    -5.947      0.000      0.000
REMARK INTER + INTRA:          -7.616
REMARK INTER:                  -6.990
REMARK INTRA:                  -0.626
REMARK UNBOUND:                -0.626
REMARK SMILES Clc1ccc(C(c2ccc(Cl)cc2)C(Cl)(Cl)Cl)cc1
REMARK SMILES IDX 6 1 14 2 15 3 16 4 17 5 5 6 4 7 18 8 3 9 19 10 2 11 1 12
REMARK SMILES IDX 7 13 8 14 13 15 9 16 12 17 10 18 11 19
REMARK H PARENT
REMARK Flexibility Score: inf
ROOT
ATOM      1  C   UNL     1      -1.264   1.967  -1.178  1.00  0.00     0.101 C 
ENDROOT
BRANCH   1   2
ATOM      2  C   UNL     1      -1.679   1.126  -2.457  1.00  0.00     0.201 C 
ATOM      3  Cl  UNL     1      -1.012   1.751  -4.000  1.00  0.00    -0.083 Cl
ATOM      4  Cl  UNL     1      -3.484   1.155  -2.634  1.00  0.00    -0.083 Cl
ATOM      5  Cl  UNL     1      -1.224  -0.614  -2.308  1.00  0.00    -0.083 Cl
ENDBRANCH   1   2
BRANCH   1   6
ATOM      6  C   UNL     1      -1.689   3.396  -1.180  1.00  0.00    -0.036 A 
ATOM      7  C   UNL     1      -1.581   4.154  -2.345  1.00  0.00     0.006 A 
ATOM      8  C   UNL     1      -2.192   3.976  -0.015  1.00  0.00     0.006 A 
ATOM      9  C   UNL     1      -1.978   5.492  -2.347  1.00  0.00     0.021 A 
ATOM     10  C   UNL     1      -2.589   5.313  -0.016  1.00  0.00     0.021 A 
ATOM     11  C   UNL     1      -2.482   6.071  -1.182  1.00  0.00     0.041 A 
ATOM     12  Cl  UNL     1      -2.971   7.721  -1.183  1.00  0.00    -0.084 Cl
ENDBRANCH   1   6
BRANCH   1  13
ATOM     13  C   UNL     1       0.187   1.773  -0.669  1.00  0.00    -0.036 A 
ATOM     14  C   UNL     1       0.368   1.096   0.504  1.00  0.00     0.006 A 
ATOM     15  C   UNL     1       1.203   2.293  -1.421  1.00  0.00     0.006 A 
ATOM     16  C   UNL     1       1.674   0.923   0.962  1.00  0.00     0.021 A 
ATOM     17  C   UNL     1       2.509   2.121  -0.962  1.00  0.00     0.021 A 
ATOM     18  C   UNL     1       2.745   1.435   0.230  1.00  0.00     0.041 A 
ATOM     19  Cl  UNL     1       4.356   1.223   0.796  1.00  0.00    -0.084 Cl
ENDBRANCH   1  13
TORSDOF 3
ENDMDL
MODEL 2
REMARK VINA RESULT:    -5.932      2.221      4.658
REMARK INTER + INTRA:          -7.598
REMARK INTER:                  -7.099
REMARK INTRA:                  -0.499
REMARK UNBOUND:                -0.626
REMARK SMILES Clc1ccc(C(c2ccc(Cl)cc2)C(Cl)(Cl)Cl)cc1
REMARK SMILES IDX 6 1 14 2 15 3 16 4 17 5 5 6 4 7 18 8 3 9 19 10 2 11 1 12
REMARK SMILES IDX 7 13 8 14 13 15 9 16 12 17 10 18 11 19
REMARK H PARENT
REMARK Flexibility Score: inf
ROOT
ATOM      1  C   UNL     1      -0.019   1.444  -1.545  1.00  0.00     0.101 C 
ENDROOT
BRANCH   1   2
ATOM      2  C   UNL     1       0.354   0.837  -0.128  1.00  0.00     0.201 C 
ATOM      3  Cl  UNL     1      -0.623   1.479   1.231  1.00  0.00    -0.083 Cl
ATOM      4  Cl  UNL     1       2.083   1.231   0.258  1.00  0.00    -0.083 Cl
ATOM      5  Cl  UNL     1       0.241  -0.964  -0.106  1.00  0.00    -0.083 Cl
ENDBRANCH   1   2
BRANCH   1   6
ATOM      6  C   UNL     1       0.054   2.930  -1.649  1.00  0.00    -0.036 A 
ATOM      7  C   UNL     1       0.986   3.524  -2.499  1.00  0.00     0.006 A 
ATOM      8  C   UNL     1      -0.809   3.726  -0.895  1.00  0.00     0.006 A 
ATOM      9  C   UNL     1       1.056   4.915  -2.596  1.00  0.00     0.021 A 
ATOM     10  C   UNL     1      -0.741   5.116  -0.993  1.00  0.00     0.021 A 
ATOM     11  C   UNL     1       0.192   5.710  -1.843  1.00  0.00     0.041 A 
ATOM     12  Cl  UNL     1       0.277   7.425  -1.962  1.00  0.00    -0.084 Cl
ENDBRANCH   1   6
BRANCH   1  13
ATOM     13  C   UNL     1      -1.274   0.856  -2.237  1.00  0.00    -0.036 A 
ATOM     14  C   UNL     1      -2.500   1.261  -1.790  1.00  0.00     0.006 A 
ATOM     15  C   UNL     1      -1.083  -0.037  -3.255  1.00  0.00     0.006 A 
ATOM     16  C   UNL     1      -3.629   0.729  -2.412  1.00  0.00     0.021 A 
ATOM     17  C   UNL     1      -2.213  -0.569  -3.876  1.00  0.00     0.021 A 
ATOM     18  C   UNL     1      -3.486  -0.185  -3.456  1.00  0.00     0.041 A 
ATOM     19  Cl  UNL     1      -4.880  -0.842  -4.223  1.00  0.00    -0.084 Cl
ENDBRANCH   1  13
TORSDOF 3
ENDMDL
MODEL 3
REMARK VINA RESULT:    -5.834      2.878      4.061
REMARK INTER + INTRA:          -7.483
REMARK INTER:                  -6.868
REMARK INTRA:                  -0.615
REMARK UNBOUND:                -0.626
REMARK SMILES Clc1ccc(C(c2ccc(Cl)cc2)C(Cl)(Cl)Cl)cc1
REMARK SMILES IDX 6 1 14 2 15 3 16 4 17 5 5 6 4 7 18 8 3 9 19 10 2 11 1 12
REMARK SMILES IDX 7 13 8 14 13 15 9 16 12 17 10 18 11 19
REMARK H PARENT
REMARK Flexibility Score: inf
ROOT
ATOM      1  C   UNL     1      -2.204   4.697  -1.787  1.00  0.00     0.101 C 
ENDROOT
BRANCH   1   2
ATOM      2  C   UNL     1      -3.224   3.485  -1.856  1.00  0.00     0.201 C 
ATOM      3  Cl  UNL     1      -4.882   3.883  -1.300  1.00  0.00    -0.083 Cl
ATOM      4  Cl  UNL     1      -2.636   2.144  -0.784  1.00  0.00    -0.083 Cl
ATOM      5  Cl  UNL     1      -3.337   2.780  -3.513  1.00  0.00    -0.083 Cl
ENDBRANCH   1   2
BRANCH   1   6
ATOM      6  C   UNL     1      -2.787   6.046  -2.039  1.00  0.00    -0.036 A 
ATOM      7  C   UNL     1      -2.341   7.146  -1.307  1.00  0.00     0.006 A 
ATOM      8  C   UNL     1      -3.779   6.208  -3.007  1.00  0.00     0.006 A 
ATOM      9  C   UNL     1      -2.886   8.409  -1.542  1.00  0.00     0.021 A 
ATOM     10  C   UNL     1      -4.324   7.470  -3.242  1.00  0.00     0.021 A 
ATOM     11  C   UNL     1      -3.878   8.570  -2.510  1.00  0.00     0.041 A 
ATOM     12  Cl  UNL     1      -4.552  10.127  -2.800  1.00  0.00    -0.084 Cl
ENDBRANCH   1   6
BRANCH   1  13
ATOM     13  C   UNL     1      -0.841   4.490  -2.495  1.00  0.00    -0.036 A 
ATOM     14  C   UNL     1      -0.724   4.907  -3.792  1.00  0.00     0.006 A 
ATOM     15  C   UNL     1       0.166   3.901  -1.784  1.00  0.00     0.006 A 
ATOM     16  C   UNL     1       0.502   4.720  -4.429  1.00  0.00     0.021 A 
ATOM     17  C   UNL     1       1.392   3.712  -2.422  1.00  0.00     0.021 A 
ATOM     18  C   UNL     1       1.560   4.123  -3.745  1.00  0.00     0.041 A 
ATOM     19  Cl  UNL     1       3.073   3.890  -4.532  1.00  0.00    -0.084 Cl
ENDBRANCH   1  13
TORSDOF 3
ENDMDL
MODEL 4
REMARK VINA RESULT:    -5.814      4.250      5.835
REMARK INTER + INTRA:          -7.460
REMARK INTER:                  -6.842
REMARK INTRA:                  -0.618
REMARK UNBOUND:                -0.626
REMARK SMILES Clc1ccc(C(c2ccc(Cl)cc2)C(Cl)(Cl)Cl)cc1
REMARK SMILES IDX 6 1 14 2 15 3 16 4 17 5 5 6 4 7 18 8 3 9 19 10 2 11 1 12
REMARK SMILES IDX 7 13 8 14 13 15 9 16 12 17 10 18 11 19
REMARK H PARENT
REMARK Flexibility Score: inf
ROOT
ATOM      1  C   UNL     1      -4.632   4.582  -2.418  1.00  0.00     0.101 C 
ENDROOT
BRANCH   1   2
ATOM      2  C   UNL     1      -5.949   5.308  -2.922  1.00  0.00     0.201 C 
ATOM      3  Cl  UNL     1      -5.922   7.092  -2.742  1.00  0.00    -0.083 Cl
ATOM      4  Cl  UNL     1      -7.366   4.720  -1.953  1.00  0.00    -0.083 Cl
ATOM      5  Cl  UNL     1      -6.329   4.918  -4.642  1.00  0.00    -0.083 Cl
ENDBRANCH   1   2
BRANCH   1   6
ATOM      6  C   UNL     1      -3.392   5.410  -2.433  1.00  0.00    -0.036 A 
ATOM      7  C   UNL     1      -2.551   5.426  -1.321  1.00  0.00     0.006 A 
ATOM      8  C   UNL     1      -3.074   6.171  -3.559  1.00  0.00     0.006 A 
ATOM      9  C   UNL     1      -1.391   6.201  -1.334  1.00  0.00     0.021 A 
ATOM     10  C   UNL     1      -1.915   6.946  -3.572  1.00  0.00     0.021 A 
ATOM     11  C   UNL     1      -1.073   6.962  -2.460  1.00  0.00     0.041 A 
ATOM     12  Cl  UNL     1       0.357   7.919  -2.477  1.00  0.00    -0.084 Cl
ENDBRANCH   1   6
BRANCH   1  13
ATOM     13  C   UNL     1      -4.397   3.142  -2.942  1.00  0.00    -0.036 A 
ATOM     14  C   UNL     1      -3.436   2.957  -3.895  1.00  0.00     0.006 A 
ATOM     15  C   UNL     1      -5.166   2.140  -2.420  1.00  0.00     0.006 A 
ATOM     16  C   UNL     1      -3.227   1.661  -4.367  1.00  0.00     0.021 A 
ATOM     17  C   UNL     1      -4.957   0.844  -2.893  1.00  0.00     0.021 A 
ATOM     18  C   UNL     1      -3.987   0.604  -3.866  1.00  0.00     0.041 A 
ATOM     19  Cl  UNL     1      -3.729  -0.995  -4.448  1.00  0.00    -0.084 Cl
ENDBRANCH   1  13
TORSDOF 3
ENDMDL
MODEL 5
REMARK VINA RESULT:    -5.806      2.741      4.008
REMARK INTER + INTRA:          -7.450
REMARK INTER:                  -7.081
REMARK INTRA:                  -0.369
REMARK UNBOUND:                -0.626
REMARK SMILES Clc1ccc(C(c2ccc(Cl)cc2)C(Cl)(Cl)Cl)cc1
REMARK SMILES IDX 6 1 14 2 15 3 16 4 17 5 5 6 4 7 18 8 3 9 19 10 2 11 1 12
REMARK SMILES IDX 7 13 8 14 13 15 9 16 12 17 10 18 11 19
REMARK H PARENT
REMARK Flexibility Score: inf
ROOT
ATOM      1  C   UNL     1      -4.730   4.100  -1.659  1.00  0.00     0.101 C 
ENDROOT
BRANCH   1   2
ATOM      2  C   UNL     1      -5.614   3.242  -2.658  1.00  0.00     0.201 C 
ATOM      3  Cl  UNL     1      -5.425   3.691  -4.384  1.00  0.00    -0.083 Cl
ATOM      4  Cl  UNL     1      -7.369   3.477  -2.260  1.00  0.00    -0.083 Cl
ATOM      5  Cl  UNL     1      -5.303   1.471  -2.497  1.00  0.00    -0.083 Cl
ENDBRANCH   1   2
BRANCH   1   6
ATOM      6  C   UNL     1      -4.561   5.537  -2.019  1.00  0.00    -0.036 A 
ATOM      7  C   UNL     1      -3.318   6.151  -1.874  1.00  0.00     0.006 A 
ATOM      8  C   UNL     1      -5.648   6.269  -2.498  1.00  0.00     0.006 A 
ATOM      9  C   UNL     1      -3.160   7.496  -2.209  1.00  0.00     0.021 A 
ATOM     10  C   UNL     1      -5.491   7.614  -2.834  1.00  0.00     0.021 A 
ATOM     11  C   UNL     1      -4.247   8.227  -2.689  1.00  0.00     0.041 A 
ATOM     12  Cl  UNL     1      -4.053   9.887  -3.102  1.00  0.00    -0.084 Cl
ENDBRANCH   1   6
BRANCH   1  13
ATOM     13  C   UNL     1      -3.413   3.446  -1.171  1.00  0.00    -0.036 A 
ATOM     14  C   UNL     1      -3.284   3.187   0.165  1.00  0.00     0.006 A 
ATOM     15  C   UNL     1      -2.454   3.165  -2.104  1.00  0.00     0.006 A 
ATOM     16  C   UNL     1      -2.098   2.600   0.604  1.00  0.00     0.021 A 
ATOM     17  C   UNL     1      -1.267   2.579  -1.664  1.00  0.00     0.021 A 
ATOM     18  C   UNL     1      -1.089   2.295  -0.310  1.00  0.00     0.041 A 
ATOM     19  Cl  UNL     1       0.375   1.571   0.232  1.00  0.00    -0.084 Cl
ENDBRANCH   1  13
TORSDOF 3
ENDMDL
