MODEL 1
REMARK VINA RESULT:    -6.572      0.000      0.000
REMARK INTER + INTRA:         -12.444
REMARK INTER:                  -9.261
REMARK INTRA:                  -3.183
REMARK UNBOUND:                -3.183
REMARK SMILES CC1(C)[C@H](C=C(Cl)Cl)[C@H]1C(=O)OCc1cccc(Oc2ccccc2)c1
REMARK SMILES IDX 13 1 12 2 10 3 11 4 9 5 4 6 2 7 1 8 3 9 5 10 7 11 6 12 8 13
REMARK SMILES IDX 14 14 26 15 15 16 18 17 16 18 17 19 19 20 20 21 21 22 25 23
REMARK SMILES IDX 22 24 24 25 23 26
REMARK H PARENT
REMARK Flexibility Score: inf
ROOT
ATOM      1  C   UNL     1      -0.520   6.717  -3.313  1.00  0.00     0.268 C 
ENDROOT
BRANCH   1   2
ATOM      2  O   UNL     1      -0.367   5.341  -2.986  1.00  0.00    -0.461 OA
BRANCH   2   3
ATOM      3  C   UNL     1      -0.083   5.069  -1.679  1.00  0.00     0.310 C 
ATOM      4  O   UNL     1       0.568   5.767  -0.914  1.00  0.00    -0.252 OA
BRANCH   3   5
ATOM      5  C   UNL     1      -0.672   3.778  -1.243  1.00  0.00     0.113 C 
ATOM      6  C   UNL     1      -1.869   3.261  -1.975  1.00  0.00     0.035 C 
ATOM      7  C   UNL     1      -2.004   3.753  -0.563  1.00  0.00    -0.014 C 
ATOM      8  C   UNL     1      -2.270   2.737   0.496  1.00  0.00     0.012 C 
ATOM      9  C   UNL     1      -2.655   5.068  -0.296  1.00  0.00     0.012 C 
BRANCH   6  10
ATOM     10  C   UNL     1      -1.936   1.837  -2.268  1.00  0.00     0.011 C 
ATOM     11  Cl  UNL     1      -0.287   1.967  -4.395  1.00  0.00    -0.071 Cl
ATOM     12  C   UNL     1      -1.317   1.175  -3.258  1.00  0.00     0.103 C 
ATOM     13  Cl  UNL     1      -1.532  -0.532  -3.437  1.00  0.00    -0.071 Cl
ENDBRANCH   6  10
ENDBRANCH   3   5
ENDBRANCH   2   3
ENDBRANCH   1   2
BRANCH   1  14
ATOM     14  C   UNL     1      -1.948   7.112  -3.140  1.00  0.00    -0.007 A 
ATOM     15  C   UNL     1      -2.960   6.326  -3.691  1.00  0.00     0.054 A 
ATOM     16  C   UNL     1      -2.271   8.266  -2.426  1.00  0.00     0.007 A 
ATOM     17  C   UNL     1      -4.295   6.695  -3.528  1.00  0.00     0.127 A 
ATOM     18  C   UNL     1      -3.605   8.635  -2.264  1.00  0.00     0.004 A 
ATOM     19  C   UNL     1      -4.618   7.849  -2.815  1.00  0.00     0.047 A 
BRANCH  17  20
ATOM     20  O   UNL     1      -5.284   5.929  -4.066  1.00  0.00    -0.457 OA
BRANCH  20  21
ATOM     21  C   UNL     1      -5.331   4.593  -3.707  1.00  0.00     0.127 A 
ATOM     22  C   UNL     1      -5.673   4.257  -2.408  1.00  0.00     0.047 A 
ATOM     23  C   UNL     1      -5.035   3.629  -4.652  1.00  0.00     0.047 A 
ATOM     24  C   UNL     1      -5.721   2.912  -2.046  1.00  0.00     0.004 A 
ATOM     25  C   UNL     1      -5.084   2.283  -4.289  1.00  0.00     0.004 A 
ATOM     26  C   UNL     1      -5.427   1.924  -2.986  1.00  0.00     0.000 A 
ENDBRANCH  20  21
ENDBRANCH  17  20
ENDBRANCH   1  14
TORSDOF 7
ENDMDL
MODEL 2
REMARK VINA RESULT:    -6.446      3.300      5.340
REMARK INTER + INTRA:         -12.267
REMARK INTER:                 -10.158
REMARK INTRA:                  -2.109
REMARK UNBOUND:                -3.183
REMARK SMILES CC1(C)[C@H](C=C(Cl)Cl)[C@H]1C(=O)OCc1cccc(Oc2ccccc2)c1
REMARK SMILES IDX 13 1 12 2 10 3 11 4 9 5 4 6 2 7 1 8 3 9 5 10 7 11 6 12 8 13
REMARK SMILES IDX 14 14 26 15 15 16 18 17 16 18 17 19 19 20 20 21 21 22 25 23
REMARK SMILES IDX 22 24 24 25 23 26
REMARK H PARENT
REMARK Flexibility Score: inf
ROOT
ATOM      1  C   UNL     1      -2.702   3.633   0.076  1.00  0.00     0.268 C 
ENDROOT
BRANCH   1   2
ATOM      2  O   UNL     1      -2.296   4.975  -0.159  1.00  0.00    -0.461 OA
BRANCH   2   3
ATOM      3  C   UNL     1      -1.169   5.131  -0.913  1.00  0.00     0.310 C 
ATOM      4  O   UNL     1      -0.155   4.449  -0.859  1.00  0.00    -0.252 OA
BRANCH   3   5
ATOM      5  C   UNL     1      -1.291   6.268  -1.860  1.00  0.00     0.113 C 
ATOM      6  C   UNL     1      -2.649   6.611  -2.385  1.00  0.00     0.035 C 
ATOM      7  C   UNL     1      -1.617   6.014  -3.297  1.00  0.00    -0.014 C 
ATOM      8  C   UNL     1      -1.038   6.898  -4.350  1.00  0.00     0.012 C 
ATOM      9  C   UNL     1      -1.741   4.590  -3.725  1.00  0.00     0.012 C 
BRANCH   6  10
ATOM     10  C   UNL     1      -3.009   8.017  -2.500  1.00  0.00     0.011 C 
ATOM     11  Cl  UNL     1      -5.638   7.548  -2.856  1.00  0.00    -0.071 Cl
ATOM     12  C   UNL     1      -4.230   8.536  -2.698  1.00  0.00     0.103 C 
ATOM     13  Cl  UNL     1      -4.446  10.248  -2.809  1.00  0.00    -0.071 Cl
ENDBRANCH   6  10
ENDBRANCH   3   5
ENDBRANCH   2   3
ENDBRANCH   1   2
BRANCH   1  14
ATOM     14  C   UNL     1      -3.713   3.234  -0.945  1.00  0.00    -0.007 A 
ATOM     15  C   UNL     1      -4.790   4.075  -1.225  1.00  0.00     0.054 A 
ATOM     16  C   UNL     1      -3.580   2.022  -1.622  1.00  0.00     0.007 A 
ATOM     17  C   UNL     1      -5.735   3.702  -2.180  1.00  0.00     0.127 A 
ATOM     18  C   UNL     1      -4.525   1.649  -2.577  1.00  0.00     0.004 A 
ATOM     19  C   UNL     1      -5.603   2.490  -2.856  1.00  0.00     0.047 A 
BRANCH  17  20
ATOM     20  O   UNL     1      -6.787   4.522  -2.453  1.00  0.00    -0.457 OA
BRANCH  20  21
ATOM     21  C   UNL     1      -7.822   4.570  -1.535  1.00  0.00     0.127 A 
ATOM     22  C   UNL     1      -8.148   5.781  -0.949  1.00  0.00     0.047 A 
ATOM     23  C   UNL     1      -8.504   3.407  -1.226  1.00  0.00     0.047 A 
ATOM     24  C   UNL     1      -9.190   5.829  -0.025  1.00  0.00     0.004 A 
ATOM     25  C   UNL     1      -9.547   3.456  -0.301  1.00  0.00     0.004 A 
ATOM     26  C   UNL     1      -9.890   4.668   0.299  1.00  0.00     0.000 A 
ENDBRANCH  20  21
ENDBRANCH  17  20
ENDBRANCH   1  14
TORSDOF 7
ENDMDL
MODEL 3
REMARK VINA RESULT:    -6.345      2.502      5.002
REMARK INTER + INTRA:         -12.125
REMARK INTER:                  -9.969
REMARK INTRA:                  -2.156
REMARK UNBOUND:                -3.183
REMARK SMILES CC1(C)[C@H](C=C(Cl)Cl)[C@H]1C(=O)OCc1cccc(Oc2ccccc2)c1
REMARK SMILES IDX 13 1 12 2 10 3 11 4 9 5 4 6 2 7 1 8 3 9 5 10 7 11 6 12 8 13
REMARK SMILES IDX 14 14 26 15 15 16 18 17 16 18 17 19 19 20 20 21 21 22 25 23
REMARK SMILES IDX 22 24 24 25 23 26
REMARK H PARENT
REMARK Flexibility Score: inf
ROOT
ATOM      1  C   UNL     1       1.240   3.707  -2.310  1.00  0.00     0.268 C 
ENDROOT
BRANCH   1   2
ATOM      2  O   UNL     1       0.289   4.731  -2.574  1.00  0.00    -0.461 OA
BRANCH   2   3
ATOM      3  C   UNL     1       0.098   5.638  -1.573  1.00  0.00     0.310 C 
ATOM      4  O   UNL     1       0.952   6.078  -0.816  1.00  0.00    -0.252 OA
BRANCH   3   5
ATOM      5  C   UNL     1      -1.320   6.067  -1.479  1.00  0.00     0.113 C 
ATOM      6  C   UNL     1      -2.198   5.882  -2.676  1.00  0.00     0.035 C 
ATOM      7  C   UNL     1      -1.794   7.262  -2.245  1.00  0.00    -0.014 C 
ATOM      8  C   UNL     1      -2.852   8.137  -1.662  1.00  0.00     0.012 C 
ATOM      9  C   UNL     1      -0.773   8.014  -3.030  1.00  0.00     0.012 C 
BRANCH   6  10
ATOM     10  C   UNL     1      -3.561   5.414  -2.465  1.00  0.00     0.011 C 
ATOM     11  Cl  UNL     1      -2.827   3.121  -1.256  1.00  0.00    -0.071 Cl
ATOM     12  C   UNL     1      -3.953   4.272  -1.881  1.00  0.00     0.103 C 
ATOM     13  Cl  UNL     1      -5.635   3.899  -1.731  1.00  0.00    -0.071 Cl
ENDBRANCH   6  10
ENDBRANCH   3   5
ENDBRANCH   2   3
ENDBRANCH   1   2
BRANCH   1  14
ATOM     14  C   UNL     1       0.540   2.395  -2.197  1.00  0.00    -0.007 A 
ATOM     15  C   UNL     1      -0.104   1.851  -3.309  1.00  0.00     0.054 A 
ATOM     16  C   UNL     1       0.531   1.712  -0.981  1.00  0.00     0.007 A 
ATOM     17  C   UNL     1      -0.758   0.624  -3.203  1.00  0.00     0.127 A 
ATOM     18  C   UNL     1      -0.123   0.485  -0.876  1.00  0.00     0.004 A 
ATOM     19  C   UNL     1      -0.768  -0.059  -1.987  1.00  0.00     0.047 A 
BRANCH  17  20
ATOM     20  O   UNL     1      -1.387   0.093  -4.287  1.00  0.00    -0.457 OA
BRANCH  20  21
ATOM     21  C   UNL     1      -2.767   0.190  -4.343  1.00  0.00     0.127 A 
ATOM     22  C   UNL     1      -3.527  -0.964  -4.271  1.00  0.00     0.047 A 
ATOM     23  C   UNL     1      -3.350   1.437  -4.471  1.00  0.00     0.047 A 
ATOM     24  C   UNL     1      -4.917  -0.866  -4.328  1.00  0.00     0.004 A 
ATOM     25  C   UNL     1      -4.741   1.535  -4.527  1.00  0.00     0.004 A 
ATOM     26  C   UNL     1      -5.524   0.383  -4.455  1.00  0.00     0.000 A 
ENDBRANCH  20  21
ENDBRANCH  17  20
ENDBRANCH   1  14
TORSDOF 7
ENDMDL
MODEL 4
REMARK VINA RESULT:    -6.323      2.839      6.098
REMARK INTER + INTRA:         -12.094
REMARK INTER:                  -9.207
REMARK INTRA:                  -2.887
REMARK UNBOUND:                -3.183
REMARK SMILES CC1(C)[C@H](C=C(Cl)Cl)[C@H]1C(=O)OCc1cccc(Oc2ccccc2)c1
REMARK SMILES IDX 13 1 12 2 10 3 11 4 9 5 4 6 2 7 1 8 3 9 5 10 7 11 6 12 8 13
REMARK SMILES IDX 14 14 26 15 15 16 18 17 16 18 17 19 19 20 20 21 21 22 25 23
REMARK SMILES IDX 22 24 24 25 23 26
REMARK H PARENT
REMARK Flexibility Score: inf
ROOT
ATOM      1  C   UNL     1      -5.122   2.757  -4.656  1.00  0.00     0.268 C 
ENDROOT
BRANCH   1   2
ATOM      2  O   UNL     1      -4.416   3.796  -3.991  1.00  0.00    -0.461 OA
BRANCH   2   3
ATOM      3  C   UNL     1      -4.910   4.166  -2.774  1.00  0.00     0.310 C 
ATOM      4  O   UNL     1      -6.055   4.007  -2.373  1.00  0.00    -0.252 OA
BRANCH   3   5
ATOM      5  C   UNL     1      -3.874   4.814  -1.930  1.00  0.00     0.113 C 
ATOM      6  C   UNL     1      -2.436   4.561  -2.253  1.00  0.00     0.035 C 
ATOM      7  C   UNL     1      -3.039   3.989  -1.004  1.00  0.00    -0.014 C 
ATOM      8  C   UNL     1      -2.597   4.568   0.299  1.00  0.00     0.012 C 
ATOM      9  C   UNL     1      -3.346   2.531  -0.928  1.00  0.00     0.012 C 
BRANCH   6  10
ATOM     10  C   UNL     1      -1.506   5.678  -2.179  1.00  0.00     0.011 C 
ATOM     11  Cl  UNL     1      -2.415   6.878  -4.413  1.00  0.00    -0.071 Cl
ATOM     12  C   UNL     1      -1.399   6.713  -3.026  1.00  0.00     0.103 C 
ATOM     13  Cl  UNL     1      -0.216   7.945  -2.758  1.00  0.00    -0.071 Cl
ENDBRANCH   6  10
ENDBRANCH   3   5
ENDBRANCH   2   3
ENDBRANCH   1   2
BRANCH   1  14
ATOM     14  C   UNL     1      -4.385   1.471  -4.489  1.00  0.00    -0.007 A 
ATOM     15  C   UNL     1      -3.003   1.479  -4.300  1.00  0.00     0.054 A 
ATOM     16  C   UNL     1      -5.078   0.261  -4.522  1.00  0.00     0.007 A 
ATOM     17  C   UNL     1      -2.315   0.276  -4.144  1.00  0.00     0.127 A 
ATOM     18  C   UNL     1      -4.390  -0.942  -4.367  1.00  0.00     0.004 A 
ATOM     19  C   UNL     1      -3.008  -0.934  -4.177  1.00  0.00     0.047 A 
BRANCH  17  20
ATOM     20  O   UNL     1      -0.966   0.283  -3.959  1.00  0.00    -0.457 OA
BRANCH  20  21
ATOM     21  C   UNL     1      -0.484   0.752  -2.749  1.00  0.00     0.127 A 
ATOM     22  C   UNL     1       0.067   2.020  -2.689  1.00  0.00     0.047 A 
ATOM     23  C   UNL     1      -0.566  -0.058  -1.631  1.00  0.00     0.047 A 
ATOM     24  C   UNL     1       0.553   2.492  -1.471  1.00  0.00     0.004 A 
ATOM     25  C   UNL     1      -0.080   0.416  -0.412  1.00  0.00     0.004 A 
ATOM     26  C   UNL     1       0.479   1.691  -0.332  1.00  0.00     0.000 A 
ENDBRANCH  20  21
ENDBRANCH  17  20
ENDBRANCH   1  14
TORSDOF 7
ENDMDL
MODEL 5
REMARK VINA RESULT:    -6.317      2.282      4.493
REMARK INTER + INTRA:         -12.085
REMARK INTER:                  -9.898
REMARK INTRA:                  -2.187
REMARK UNBOUND:                -3.183
REMARK SMILES CC1(C)[C@H](C=C(Cl)Cl)[C@H]1C(=O)OCc1cccc(Oc2ccccc2)c1
REMARK SMILES IDX 13 1 12 2 10 3 11 4 9 5 4 6 2 7 1 8 3 9 5 10 7 11 6 12 8 13
REMARK SMILES IDX 14 14 26 15 15 16 18 17 16 18 17 19 19 20 20 21 21 22 25 23
REMARK SMILES IDX 22 24 24 25 23 26
REMARK H PARENT
REMARK Flexibility Score: inf
ROOT
ATOM      1  C   UNL     1      -4.498   1.930  -4.108  1.00  0.00     0.268 C 
ENDROOT
BRANCH   1   2
ATOM      2  O   UNL     1      -3.107   1.978  -3.815  1.00  0.00    -0.461 OA
BRANCH   2   3
ATOM      3  C   UNL     1      -2.742   1.504  -2.588  1.00  0.00     0.310 C 
ATOM      4  O   UNL     1      -3.240   0.558  -1.995  1.00  0.00    -0.252 OA
BRANCH   3   5
ATOM      5  C   UNL     1      -1.622   2.285  -2.005  1.00  0.00     0.113 C 
ATOM      6  C   UNL     1      -1.295   2.085  -0.559  1.00  0.00     0.035 C 
ATOM      7  C   UNL     1      -1.901   3.378  -1.023  1.00  0.00    -0.014 C 
ATOM      8  C   UNL     1      -1.031   4.589  -1.005  1.00  0.00     0.012 C 
ATOM      9  C   UNL     1      -3.332   3.675  -0.725  1.00  0.00     0.012 C 
BRANCH   6  10
ATOM     10  C   UNL     1       0.107   2.026  -0.171  1.00  0.00     0.011 C 
ATOM     11  Cl  UNL     1       0.225  -0.666  -0.168  1.00  0.00    -0.071 Cl
ATOM     12  C   UNL     1       0.856   0.930   0.025  1.00  0.00     0.103 C 
ATOM     13  Cl  UNL     1       2.515   1.077   0.490  1.00  0.00    -0.071 Cl
ENDBRANCH   6  10
ENDBRANCH   3   5
ENDBRANCH   2   3
ENDBRANCH   1   2
BRANCH   1  14
ATOM     14  C   UNL     1      -5.162   3.150  -3.566  1.00  0.00    -0.007 A 
ATOM     15  C   UNL     1      -4.706   4.415  -3.937  1.00  0.00     0.054 A 
ATOM     16  C   UNL     1      -6.240   3.025  -2.690  1.00  0.00     0.007 A 
ATOM     17  C   UNL     1      -5.328   5.556  -3.429  1.00  0.00     0.127 A 
ATOM     18  C   UNL     1      -6.862   4.166  -2.183  1.00  0.00     0.004 A 
ATOM     19  C   UNL     1      -6.405   5.431  -2.553  1.00  0.00     0.047 A 
BRANCH  17  20
ATOM     20  O   UNL     1      -4.883   6.791  -3.790  1.00  0.00    -0.457 OA
BRANCH  20  21
ATOM     21  C   UNL     1      -3.672   7.216  -3.273  1.00  0.00     0.127 A 
ATOM     22  C   UNL     1      -3.624   7.691  -1.974  1.00  0.00     0.047 A 
ATOM     23  C   UNL     1      -2.541   7.155  -4.066  1.00  0.00     0.047 A 
ATOM     24  C   UNL     1      -2.404   8.119  -1.453  1.00  0.00     0.004 A 
ATOM     25  C   UNL     1      -1.320   7.584  -3.543  1.00  0.00     0.004 A 
ATOM     26  C   UNL     1      -1.252   8.065  -2.236  1.00  0.00     0.000 A 
ENDBRANCH  20  21
ENDBRANCH  17  20
ENDBRANCH   1  14
TORSDOF 7
ENDMDL
