MODEL 1
REMARK VINA RESULT:    -6.206      0.000      0.000
REMARK INTER + INTRA:          -7.930
REMARK INTER:                  -7.294
REMARK INTRA:                  -0.636
REMARK UNBOUND:                -0.636
REMARK SMILES Clc1ccc(C(c2ccc(Cl)cc2)C(Cl)(Cl)Cl)cc1
REMARK SMILES IDX 6 1 14 2 15 3 16 4 17 5 5 6 4 7 18 8 3 9 19 10 2 11 1 12
REMARK SMILES IDX 7 13 8 14 13 15 9 16 12 17 10 18 11 19
REMARK H PARENT
REMARK Flexibility Score: inf
ROOT
ATOM      1  C   UNL     1      -1.293   1.952  -1.191  1.00  0.00     0.101 C 
ENDROOT
BRANCH   1   2
ATOM      2  C   UNL     1      -1.714   1.105  -2.464  1.00  0.00     0.201 C 
ATOM      3  Cl  UNL     1      -1.011   1.691  -4.006  1.00  0.00    -0.083 Cl
ATOM      4  Cl  UNL     1      -3.516   1.179  -2.665  1.00  0.00    -0.083 Cl
ATOM      5  Cl  UNL     1      -1.307  -0.644  -2.286  1.00  0.00    -0.083 Cl
ENDBRANCH   1   2
BRANCH   1   6
ATOM      6  C   UNL     1      -1.707   3.384  -1.203  1.00  0.00    -0.036 A 
ATOM      7  C   UNL     1      -2.238   3.966  -0.052  1.00  0.00     0.006 A 
ATOM      8  C   UNL     1      -1.567   4.142  -2.366  1.00  0.00     0.006 A 
ATOM      9  C   UNL     1      -2.627   5.306  -0.063  1.00  0.00     0.021 A 
ATOM     10  C   UNL     1      -1.955   5.481  -2.378  1.00  0.00     0.021 A 
ATOM     11  C   UNL     1      -2.485   6.063  -1.227  1.00  0.00     0.041 A 
ATOM     12  Cl  UNL     1      -2.965   7.716  -1.241  1.00  0.00    -0.084 Cl
ENDBRANCH   1   6
BRANCH   1  13
ATOM     13  C   UNL     1       0.156   1.751  -0.680  1.00  0.00    -0.036 A 
ATOM     14  C   UNL     1       0.335   1.050   0.479  1.00  0.00     0.006 A 
ATOM     15  C   UNL     1       1.174   2.289  -1.417  1.00  0.00     0.006 A 
ATOM     16  C   UNL     1       1.639   0.871   0.939  1.00  0.00     0.021 A 
ATOM     17  C   UNL     1       2.479   2.111  -0.956  1.00  0.00     0.021 A 
ATOM     18  C   UNL     1       2.711   1.401   0.221  1.00  0.00     0.041 A 
ATOM     19  Cl  UNL     1       4.321   1.182   0.790  1.00  0.00    -0.084 Cl
ENDBRANCH   1  13
TORSDOF 3
ENDMDL
MODEL 2
REMARK VINA RESULT:    -5.966      2.314      4.876
REMARK INTER + INTRA:          -7.648
REMARK INTER:                  -7.059
REMARK INTRA:                  -0.589
REMARK UNBOUND:                -0.636
REMARK SMILES Clc1ccc(C(c2ccc(Cl)cc2)C(Cl)(Cl)Cl)cc1
REMARK SMILES IDX 6 1 14 2 15 3 16 4 17 5 5 6 4 7 18 8 3 9 19 10 2 11 1 12
REMARK SMILES IDX 7 13 8 14 13 15 9 16 12 17 10 18 11 19
REMARK H PARENT
REMARK Flexibility Score: inf
ROOT
ATOM      1  C   UNL     1      -0.142   1.455  -1.828  1.00  0.00     0.101 C 
ENDROOT
BRANCH   1   2
ATOM      2  C   UNL     1       0.255   0.925  -0.387  1.00  0.00     0.201 C 
ATOM      3  Cl  UNL     1      -0.745   1.590   0.945  1.00  0.00    -0.083 Cl
ATOM      4  Cl  UNL     1       1.968   1.402  -0.023  1.00  0.00    -0.083 Cl
ATOM      5  Cl  UNL     1       0.209  -0.876  -0.284  1.00  0.00    -0.083 Cl
ENDBRANCH   1   2
BRANCH   1   6
ATOM      6  C   UNL     1      -0.058   2.932  -2.019  1.00  0.00    -0.036 A 
ATOM      7  C   UNL     1       0.515   3.453  -3.178  1.00  0.00     0.006 A 
ATOM      8  C   UNL     1      -0.550   3.792  -1.037  1.00  0.00     0.006 A 
ATOM      9  C   UNL     1       0.596   4.834  -3.357  1.00  0.00     0.021 A 
ATOM     10  C   UNL     1      -0.471   5.173  -1.215  1.00  0.00     0.021 A 
ATOM     11  C   UNL     1       0.102   5.694  -2.375  1.00  0.00     0.041 A 
ATOM     12  Cl  UNL     1       0.202   7.399  -2.594  1.00  0.00    -0.084 Cl
ENDBRANCH   1   6
BRANCH   1  13
ATOM     13  C   UNL     1      -1.417   0.841  -2.459  1.00  0.00    -0.036 A 
ATOM     14  C   UNL     1      -1.257  -0.130  -3.408  1.00  0.00     0.006 A 
ATOM     15  C   UNL     1      -2.629   1.306  -2.032  1.00  0.00     0.006 A 
ATOM     16  C   UNL     1      -2.405  -0.681  -3.977  1.00  0.00     0.021 A 
ATOM     17  C   UNL     1      -3.777   0.755  -2.602  1.00  0.00     0.021 A 
ATOM     18  C   UNL     1      -3.665  -0.239  -3.574  1.00  0.00     0.041 A 
ATOM     19  Cl  UNL     1      -5.082  -0.918  -4.277  1.00  0.00    -0.084 Cl
ENDBRANCH   1  13
TORSDOF 3
ENDMDL
MODEL 3
REMARK VINA RESULT:    -5.793      1.210      5.400
REMARK INTER + INTRA:          -7.445
REMARK INTER:                  -6.810
REMARK INTRA:                  -0.636
REMARK UNBOUND:                -0.636
REMARK SMILES Clc1ccc(C(c2ccc(Cl)cc2)C(Cl)(Cl)Cl)cc1
REMARK SMILES IDX 6 1 14 2 15 3 16 4 17 5 5 6 4 7 18 8 3 9 19 10 2 11 1 12
REMARK SMILES IDX 7 13 8 14 13 15 9 16 12 17 10 18 11 19
REMARK H PARENT
REMARK Flexibility Score: inf
ROOT
ATOM      1  C   UNL     1      -0.748   2.862  -2.456  1.00  0.00     0.101 C 
ENDROOT
BRANCH   1   2
ATOM      2  C   UNL     1      -1.746   1.893  -3.219  1.00  0.00     0.201 C 
ATOM      3  Cl  UNL     1      -3.059   1.230  -2.194  1.00  0.00    -0.083 Cl
ATOM      4  Cl  UNL     1      -0.826   0.464  -3.854  1.00  0.00    -0.083 Cl
ATOM      5  Cl  UNL     1      -2.495   2.680  -4.660  1.00  0.00    -0.083 Cl
ENDBRANCH   1   2
BRANCH   1   6
ATOM      6  C   UNL     1      -0.001   2.253  -1.318  1.00  0.00    -0.036 A 
ATOM      7  C   UNL     1      -0.696   1.731  -0.228  1.00  0.00     0.006 A 
ATOM      8  C   UNL     1       1.394   2.208  -1.343  1.00  0.00     0.006 A 
ATOM      9  C   UNL     1       0.003   1.163   0.838  1.00  0.00     0.021 A 
ATOM     10  C   UNL     1       2.092   1.639  -0.279  1.00  0.00     0.021 A 
ATOM     11  C   UNL     1       1.398   1.117   0.812  1.00  0.00     0.041 A 
ATOM     12  Cl  UNL     1       2.260   0.416   2.126  1.00  0.00    -0.084 Cl
ENDBRANCH   1   6
BRANCH   1  13
ATOM     13  C   UNL     1      -1.279   4.281  -2.134  1.00  0.00    -0.036 A 
ATOM     14  C   UNL     1      -2.573   4.399  -1.709  1.00  0.00     0.006 A 
ATOM     15  C   UNL     1      -0.424   5.336  -2.294  1.00  0.00     0.006 A 
ATOM     16  C   UNL     1      -3.051   5.677  -1.421  1.00  0.00     0.021 A 
ATOM     17  C   UNL     1      -0.903   6.614  -2.006  1.00  0.00     0.021 A 
ATOM     18  C   UNL     1      -2.216   6.785  -1.569  1.00  0.00     0.041 A 
ATOM     19  Cl  UNL     1      -2.807   8.362  -1.214  1.00  0.00    -0.084 Cl
ENDBRANCH   1  13
TORSDOF 3
ENDMDL
MODEL 4
REMARK VINA RESULT:    -5.772      1.128      5.560
REMARK INTER + INTRA:          -7.420
REMARK INTER:                  -6.784
REMARK INTRA:                  -0.637
REMARK UNBOUND:                -0.636
REMARK SMILES Clc1ccc(C(c2ccc(Cl)cc2)C(Cl)(Cl)Cl)cc1
REMARK SMILES IDX 6 1 14 2 15 3 16 4 17 5 5 6 4 7 18 8 3 9 19 10 2 11 1 12
REMARK SMILES IDX 7 13 8 14 13 15 9 16 12 17 10 18 11 19
REMARK H PARENT
REMARK Flexibility Score: inf
ROOT
ATOM      1  C   UNL     1      -0.800   2.770  -2.510  1.00  0.00     0.101 C 
ENDROOT
BRANCH   1   2
ATOM      2  C   UNL     1      -1.852   1.792  -3.182  1.00  0.00     0.201 C 
ATOM      3  Cl  UNL     1      -3.169   1.259  -2.088  1.00  0.00    -0.083 Cl
ATOM      4  Cl  UNL     1      -1.004   0.284  -3.730  1.00  0.00    -0.083 Cl
ATOM      5  Cl  UNL     1      -2.600   2.505  -4.662  1.00  0.00    -0.083 Cl
ENDBRANCH   1   2
BRANCH   1   6
ATOM      6  C   UNL     1      -0.008   2.193  -1.387  1.00  0.00    -0.036 A 
ATOM      7  C   UNL     1       1.381   2.323  -1.374  1.00  0.00     0.006 A 
ATOM      8  C   UNL     1      -0.655   1.521  -0.349  1.00  0.00     0.006 A 
ATOM      9  C   UNL     1       2.123   1.782  -0.324  1.00  0.00     0.021 A 
ATOM     10  C   UNL     1       0.087   0.980   0.701  1.00  0.00     0.021 A 
ATOM     11  C   UNL     1       1.475   1.111   0.714  1.00  0.00     0.041 A 
ATOM     12  Cl  UNL     1       2.390   0.442   2.010  1.00  0.00    -0.084 Cl
ENDBRANCH   1   6
BRANCH   1  13
ATOM     13  C   UNL     1      -1.289   4.212  -2.220  1.00  0.00    -0.036 A 
ATOM     14  C   UNL     1      -0.833   5.217  -3.027  1.00  0.00     0.006 A 
ATOM     15  C   UNL     1      -2.148   4.397  -1.173  1.00  0.00     0.006 A 
ATOM     16  C   UNL     1      -1.273   6.514  -2.764  1.00  0.00     0.021 A 
ATOM     17  C   UNL     1      -2.587   5.694  -0.910  1.00  0.00     0.021 A 
ATOM     18  C   UNL     1      -2.150   6.753  -1.706  1.00  0.00     0.041 A 
ATOM     19  Cl  UNL     1      -2.691   8.354  -1.381  1.00  0.00    -0.084 Cl
ENDBRANCH   1  13
TORSDOF 3
ENDMDL
MODEL 5
REMARK VINA RESULT:    -5.768      2.873      3.891
REMARK INTER + INTRA:          -7.416
REMARK INTER:                  -6.804
REMARK INTRA:                  -0.612
REMARK UNBOUND:                -0.636
REMARK SMILES Clc1ccc(C(c2ccc(Cl)cc2)C(Cl)(Cl)Cl)cc1
REMARK SMILES IDX 6 1 14 2 15 3 16 4 17 5 5 6 4 7 18 8 3 9 19 10 2 11 1 12
REMARK SMILES IDX 7 13 8 14 13 15 9 16 12 17 10 18 11 19
REMARK H PARENT
REMARK Flexibility Score: inf
ROOT
ATOM      1  C   UNL     1      -2.440   4.662  -1.822  1.00  0.00     0.101 C 
ENDROOT
BRANCH   1   2
ATOM      2  C   UNL     1      -3.488   3.485  -2.001  1.00  0.00     0.201 C 
ATOM      3  Cl  UNL     1      -5.110   3.831  -1.318  1.00  0.00    -0.083 Cl
ATOM      4  Cl  UNL     1      -2.880   2.006  -1.144  1.00  0.00    -0.083 Cl
ATOM      5  Cl  UNL     1      -3.692   3.008  -3.729  1.00  0.00    -0.083 Cl
ENDBRANCH   1   2
BRANCH   1   6
ATOM      6  C   UNL     1      -2.972   6.038  -2.040  1.00  0.00    -0.036 A 
ATOM      7  C   UNL     1      -2.459   7.108  -1.307  1.00  0.00     0.006 A 
ATOM      8  C   UNL     1      -3.984   6.256  -2.976  1.00  0.00     0.006 A 
ATOM      9  C   UNL     1      -2.957   8.395  -1.510  1.00  0.00     0.021 A 
ATOM     10  C   UNL     1      -4.482   7.542  -3.179  1.00  0.00     0.021 A 
ATOM     11  C   UNL     1      -3.968   8.612  -2.447  1.00  0.00     0.041 A 
ATOM     12  Cl  UNL     1      -4.583  10.200  -2.697  1.00  0.00    -0.084 Cl
ENDBRANCH   1   6
BRANCH   1  13
ATOM     13  C   UNL     1      -1.049   4.448  -2.469  1.00  0.00    -0.036 A 
ATOM     14  C   UNL     1      -0.051   3.937  -1.686  1.00  0.00     0.006 A 
ATOM     15  C   UNL     1      -0.897   4.784  -3.785  1.00  0.00     0.006 A 
ATOM     16  C   UNL     1       1.201   3.746  -2.268  1.00  0.00     0.021 A 
ATOM     17  C   UNL     1       0.357   4.593  -4.367  1.00  0.00     0.021 A 
ATOM     18  C   UNL     1       1.406   4.073  -3.609  1.00  0.00     0.041 A 
ATOM     19  Cl  UNL     1       2.952   3.838  -4.327  1.00  0.00    -0.084 Cl
ENDBRANCH   1  13
TORSDOF 3
ENDMDL
