MODEL 1
REMARK VINA RESULT:    -6.906      0.000      0.000
REMARK INTER + INTRA:         -11.603
REMARK INTER:                 -10.135
REMARK INTRA:                  -1.468
REMARK UNBOUND:                -1.468
REMARK SMILES CC1(C)C(C=C(Br)Br)C1C(=O)OC(C#N)c1cccc(Oc2ccccc2)c1
REMARK SMILES IDX 13 1 12 2 10 3 11 4 9 5 4 6 2 7 1 8 3 9 5 10 7 11 6 12 8 13
REMARK SMILES IDX 16 14 28 15 17 16 20 17 18 18 19 19 21 20 22 21 23 22 27 23
REMARK SMILES IDX 24 24 26 25 25 26 14 27 15 28
REMARK H PARENT
REMARK Flexibility Score: inf
ROOT
ATOM      1  C   UNL     1       1.063   3.266  -3.909  1.00  0.00     0.309 C
ENDROOT
BRANCH   1   2
ATOM      2  O   UNL     1       0.734   2.203  -3.004  1.00  0.00    -0.442 OA
BRANCH   2   3
ATOM      3  C   UNL     1      -0.569   1.812  -3.015  1.00  0.00     0.311 C
ATOM      4  O   UNL     1      -1.441   2.177  -3.791  1.00  0.00    -0.252 OA
BRANCH   3   5
ATOM      5  C   UNL     1      -0.852   0.839  -1.928  1.00  0.00     0.113 C
ATOM      6  C   UNL     1      -1.343   1.364  -0.617  1.00  0.00     0.035 C
ATOM      7  C   UNL     1       0.036   0.781  -0.727  1.00  0.00    -0.014 C
ATOM      8  C   UNL     1       1.187   1.724  -0.618  1.00  0.00     0.012 C
ATOM      9  C   UNL     1       0.316  -0.569  -0.156  1.00  0.00     0.012 C
BRANCH   6  10
ATOM     10  C   UNL     1      -1.529   2.800  -0.472  1.00  0.00     0.001 C
ATOM     11  Br  UNL     1      -4.189   2.785  -1.474  1.00  0.00    -0.043 Br
ATOM     12  C   UNL     1      -2.618   3.526  -0.774  1.00  0.00     0.057 C
ATOM     13  Br  UNL     1      -2.649   5.382  -0.507  1.00  0.00    -0.043 Br
ENDBRANCH   6  10
ENDBRANCH   3   5
ENDBRANCH   2   3
ENDBRANCH   1   2
BRANCH   1  14
ATOM     14  C   UNL     1       0.704   4.579  -3.303  1.00  0.00     0.011 A
ATOM     15  C   UNL     1      -0.136   5.459  -3.987  1.00  0.00     0.055 A
ATOM     16  C   UNL     1       1.207   4.930  -2.050  1.00  0.00     0.009 A
ATOM     17  C   UNL     1      -0.471   6.687  -3.419  1.00  0.00     0.127 A
ATOM     18  C   UNL     1       0.872   6.159  -1.482  1.00  0.00     0.004 A
ATOM     19  C   UNL     1       0.033   7.038  -2.167  1.00  0.00     0.047 A
BRANCH  17  20
ATOM     20  O   UNL     1      -1.290   7.546  -4.087  1.00  0.00    -0.457 OA
BRANCH  20  21
ATOM     21  C   UNL     1      -2.605   7.641  -3.663  1.00  0.00     0.127 A
ATOM     22  C   UNL     1      -3.011   8.770  -2.975  1.00  0.00     0.047 A
ATOM     23  C   UNL     1      -3.479   6.604  -3.937  1.00  0.00     0.047 A
ATOM     24  C   UNL     1      -4.336   8.867  -2.547  1.00  0.00     0.004 A
ATOM     25  C   UNL     1      -4.803   6.700  -3.509  1.00  0.00     0.004 A
ATOM     26  C   UNL     1      -5.232   7.832  -2.815  1.00  0.00     0.000 A
ENDBRANCH  20  21
ENDBRANCH  17  20
ENDBRANCH   1  14
BRANCH   1  27
ATOM     27  C   UNL     1       2.493   3.177  -4.268  1.00  0.00     0.113 C
ATOM     28  N   UNL     1       3.617   3.098  -4.544  1.00  0.00    -0.194 NA
ENDBRANCH   1  27
TORSDOF 8
ENDMDL
MODEL 2
REMARK VINA RESULT:    -6.743      4.328      5.743
REMARK INTER + INTRA:         -11.365
REMARK INTER:                 -10.137
REMARK INTRA:                  -1.227
REMARK UNBOUND:                -1.468
REMARK SMILES CC1(C)C(C=C(Br)Br)C1C(=O)OC(C#N)c1cccc(Oc2ccccc2)c1
REMARK SMILES IDX 13 1 12 2 10 3 11 4 9 5 4 6 2 7 1 8 3 9 5 10 7 11 6 12 8 13
REMARK SMILES IDX 16 14 28 15 17 16 20 17 18 18 19 19 21 20 22 21 23 22 27 23
REMARK SMILES IDX 24 24 26 25 25 26 14 27 15 28
REMARK H PARENT
REMARK Flexibility Score: inf
ROOT
ATOM      1  C   UNL     1      -4.390   1.639  -2.479  1.00  0.00     0.309 C
ENDROOT
BRANCH   1   2
ATOM      2  O   UNL     1      -3.032   1.739  -2.928  1.00  0.00    -0.442 OA
BRANCH   2   3
ATOM      3  C   UNL     1      -2.115   1.100  -2.154  1.00  0.00     0.311 C
ATOM      4  O   UNL     1      -1.480   0.095  -2.440  1.00  0.00    -0.252 OA
BRANCH   3   5
ATOM      5  C   UNL     1      -1.944   1.781  -0.844  1.00  0.00     0.113 C
ATOM      6  C   UNL     1      -1.096   3.010  -0.788  1.00  0.00     0.035 C
ATOM      7  C   UNL     1      -0.623   1.740  -0.146  1.00  0.00    -0.014 C
ATOM      8  C   UNL     1       0.525   1.035  -0.788  1.00  0.00     0.012 C
ATOM      9  C   UNL     1      -0.646   1.609   1.341  1.00  0.00     0.012 C
BRANCH   6  10
ATOM     10  C   UNL     1      -0.486   3.487  -2.020  1.00  0.00     0.001 C
ATOM     11  Br  UNL     1      -1.243   6.196  -1.614  1.00  0.00    -0.043 Br
ATOM     12  C   UNL     1      -0.460   4.743  -2.496  1.00  0.00     0.057 C
ATOM     13  Br  UNL     1       0.388   5.145  -4.120  1.00  0.00    -0.043 Br
ENDBRANCH   6  10
ENDBRANCH   3   5
ENDBRANCH   2   3
ENDBRANCH   1   2
BRANCH   1  14
ATOM     14  C   UNL     1      -5.037   2.981  -2.514  1.00  0.00     0.011 A
ATOM     15  C   UNL     1      -6.425   3.090  -2.421  1.00  0.00     0.055 A
ATOM     16  C   UNL     1      -4.255   4.129  -2.638  1.00  0.00     0.009 A
ATOM     17  C   UNL     1      -7.030   4.345  -2.453  1.00  0.00     0.127 A
ATOM     18  C   UNL     1      -4.861   5.385  -2.670  1.00  0.00     0.004 A
ATOM     19  C   UNL     1      -6.248   5.494  -2.579  1.00  0.00     0.047 A
BRANCH  17  20
ATOM     20  O   UNL     1      -8.385   4.452  -2.364  1.00  0.00    -0.457 OA
BRANCH  20  21
ATOM     21  C   UNL     1      -8.948   4.449  -1.098  1.00  0.00     0.127 A
ATOM     22  C   UNL     1      -8.798   5.563  -0.292  1.00  0.00     0.047 A
ATOM     23  C   UNL     1      -9.645   3.332  -0.673  1.00  0.00     0.047 A
ATOM     24  C   UNL     1      -9.365   5.560   0.983  1.00  0.00     0.004 A
ATOM     25  C   UNL     1     -10.211   3.329   0.601  1.00  0.00     0.004 A
ATOM     26  C   UNL     1     -10.072   4.444   1.429  1.00  0.00     0.000 A
ENDBRANCH  20  21
ENDBRANCH  17  20
ENDBRANCH   1  14
BRANCH   1  27
ATOM     27  C   UNL     1      -5.105   0.641  -3.301  1.00  0.00     0.113 C
ATOM     28  N   UNL     1      -5.672  -0.146  -3.937  1.00  0.00    -0.194 NA
ENDBRANCH   1  27
TORSDOF 8
ENDMDL
MODEL 3
REMARK VINA RESULT:    -6.741      3.112      4.716
REMARK INTER + INTRA:         -11.361
REMARK INTER:                  -9.937
REMARK INTRA:                  -1.424
REMARK UNBOUND:                -1.468
REMARK SMILES CC1(C)C(C=C(Br)Br)C1C(=O)OC(C#N)c1cccc(Oc2ccccc2)c1
REMARK SMILES IDX 13 1 12 2 10 3 11 4 9 5 4 6 2 7 1 8 3 9 5 10 7 11 6 12 8 13
REMARK SMILES IDX 16 14 28 15 17 16 20 17 18 18 19 19 21 20 22 21 23 22 27 23
REMARK SMILES IDX 24 24 26 25 25 26 14 27 15 28
REMARK H PARENT
REMARK Flexibility Score: inf
ROOT
ATOM      1  C   UNL     1      -4.338   1.256  -2.684  1.00  0.00     0.309 C
ENDROOT
BRANCH   1   2
ATOM      2  O   UNL     1      -2.976   1.390  -3.112  1.00  0.00    -0.442 OA
BRANCH   2   3
ATOM      3  C   UNL     1      -2.047   0.872  -2.265  1.00  0.00     0.311 C
ATOM      4  O   UNL     1      -1.361  -0.125  -2.443  1.00  0.00    -0.252 OA
BRANCH   3   5
ATOM      5  C   UNL     1      -1.935   1.681  -1.024  1.00  0.00     0.113 C
ATOM      6  C   UNL     1      -1.017   2.861  -1.026  1.00  0.00     0.035 C
ATOM      7  C   UNL     1      -0.677   1.645  -0.217  1.00  0.00    -0.014 C
ATOM      8  C   UNL     1       0.471   0.812  -0.684  1.00  0.00     0.012 C
ATOM      9  C   UNL     1      -0.822   1.678   1.268  1.00  0.00     0.012 C
BRANCH   6  10
ATOM     10  C   UNL     1      -0.286   3.166  -2.246  1.00  0.00     0.001 C
ATOM     11  Br  UNL     1       0.443   5.788  -1.424  1.00  0.00    -0.043 Br
ATOM     12  C   UNL     1       0.359   4.303  -2.560  1.00  0.00     0.057 C
ATOM     13  Br  UNL     1       1.247   4.490  -4.201  1.00  0.00    -0.043 Br
ENDBRANCH   6  10
ENDBRANCH   3   5
ENDBRANCH   2   3
ENDBRANCH   1   2
BRANCH   1  14
ATOM     14  C   UNL     1      -5.047   2.559  -2.828  1.00  0.00     0.011 A
ATOM     15  C   UNL     1      -4.542   3.538  -3.685  1.00  0.00     0.055 A
ATOM     16  C   UNL     1      -6.218   2.799  -2.109  1.00  0.00     0.009 A
ATOM     17  C   UNL     1      -5.206   4.756  -3.820  1.00  0.00     0.127 A
ATOM     18  C   UNL     1      -6.881   4.018  -2.244  1.00  0.00     0.004 A
ATOM     19  C   UNL     1      -6.376   4.997  -3.099  1.00  0.00     0.047 A
BRANCH  17  20
ATOM     20  O   UNL     1      -4.713   5.712  -4.654  1.00  0.00    -0.457 OA
BRANCH  20  21
ATOM     21  C   UNL     1      -3.755   6.576  -4.148  1.00  0.00     0.127 A
ATOM     22  C   UNL     1      -4.118   7.488  -3.174  1.00  0.00     0.047 A
ATOM     23  C   UNL     1      -2.461   6.504  -4.631  1.00  0.00     0.047 A
ATOM     24  C   UNL     1      -3.154   8.358  -2.664  1.00  0.00     0.004 A
ATOM     25  C   UNL     1      -1.497   7.374  -4.122  1.00  0.00     0.004 A
ATOM     26  C   UNL     1      -1.843   8.301  -3.138  1.00  0.00     0.000 A
ENDBRANCH  20  21
ENDBRANCH  17  20
ENDBRANCH   1  14
BRANCH   1  27
ATOM     27  C   UNL     1      -4.985   0.169  -3.447  1.00  0.00     0.113 C
ATOM     28  N   UNL     1      -5.487  -0.692  -4.041  1.00  0.00    -0.194 NA
ENDBRANCH   1  27
TORSDOF 8
ENDMDL
MODEL 4
REMARK VINA RESULT:    -6.696      3.391      5.220
REMARK INTER + INTRA:         -11.296
REMARK INTER:                 -10.042
REMARK INTRA:                  -1.254
REMARK UNBOUND:                -1.468
REMARK SMILES CC1(C)C(C=C(Br)Br)C1C(=O)OC(C#N)c1cccc(Oc2ccccc2)c1
REMARK SMILES IDX 13 1 12 2 10 3 11 4 9 5 4 6 2 7 1 8 3 9 5 10 7 11 6 12 8 13
REMARK SMILES IDX 16 14 28 15 17 16 20 17 18 18 19 19 21 20 22 21 23 22 27 23
REMARK SMILES IDX 24 24 26 25 25 26 14 27 15 28
REMARK H PARENT
REMARK Flexibility Score: inf
ROOT
ATOM      1  C   UNL     1      -4.714   1.440  -2.941  1.00  0.00     0.309 C
ENDROOT
BRANCH   1   2
ATOM      2  O   UNL     1      -3.388   1.705  -3.419  1.00  0.00    -0.442 OA
BRANCH   2   3
ATOM      3  C   UNL     1      -2.436   1.821  -2.455  1.00  0.00     0.311 C
ATOM      4  O   UNL     1      -1.848   0.912  -1.886  1.00  0.00    -0.252 OA
BRANCH   3   5
ATOM      5  C   UNL     1      -2.158   3.246  -2.138  1.00  0.00     0.113 C
ATOM      6  C   UNL     1      -1.138   3.553  -1.089  1.00  0.00     0.035 C
ATOM      7  C   UNL     1      -2.591   3.818  -0.826  1.00  0.00    -0.014 C
ATOM      8  C   UNL     1      -3.278   2.941   0.167  1.00  0.00     0.012 C
ATOM      9  C   UNL     1      -3.101   5.221  -0.835  1.00  0.00     0.012 C
BRANCH   6  10
ATOM     10  C   UNL     1      -0.460   2.443  -0.437  1.00  0.00     0.001 C
ATOM     11  Br  UNL     1       1.968   2.786  -1.875  1.00  0.00    -0.043 Br
ATOM     12  C   UNL     1       0.794   2.005  -0.644  1.00  0.00     0.057 C
ATOM     13  Br  UNL     1       1.479   0.544   0.312  1.00  0.00    -0.043 Br
ENDBRANCH   6  10
ENDBRANCH   3   5
ENDBRANCH   2   3
ENDBRANCH   1   2
BRANCH   1  14
ATOM     14  C   UNL     1      -5.493   2.708  -2.872  1.00  0.00     0.011 A
ATOM     15  C   UNL     1      -5.098   3.812  -3.629  1.00  0.00     0.055 A
ATOM     16  C   UNL     1      -6.618   2.792  -2.052  1.00  0.00     0.009 A
ATOM     17  C   UNL     1      -5.827   4.999  -3.564  1.00  0.00     0.127 A
ATOM     18  C   UNL     1      -7.347   3.980  -1.987  1.00  0.00     0.004 A
ATOM     19  C   UNL     1      -6.952   5.083  -2.743  1.00  0.00     0.047 A
BRANCH  17  20
ATOM     20  O   UNL     1      -5.442   6.077  -4.301  1.00  0.00    -0.457 OA
BRANCH  20  21
ATOM     21  C   UNL     1      -4.397   6.847  -3.817  1.00  0.00     0.127 A
ATOM     22  C   UNL     1      -4.668   7.852  -2.906  1.00  0.00     0.047 A
ATOM     23  C   UNL     1      -3.111   6.591  -4.256  1.00  0.00     0.047 A
ATOM     24  C   UNL     1      -3.616   8.629  -2.418  1.00  0.00     0.004 A
ATOM     25  C   UNL     1      -2.060   7.368  -3.769  1.00  0.00     0.004 A
ATOM     26  C   UNL     1      -2.312   8.386  -2.849  1.00  0.00     0.000 A
ENDBRANCH  20  21
ENDBRANCH  17  20
ENDBRANCH   1  14
BRANCH   1  27
ATOM     27  C   UNL     1      -5.353   0.427  -3.807  1.00  0.00     0.113 C
ATOM     28  N   UNL     1      -5.850  -0.363  -4.496  1.00  0.00    -0.194 NA
ENDBRANCH   1  27
TORSDOF 8
ENDMDL
MODEL 5
REMARK VINA RESULT:    -6.670      2.208      5.532
REMARK INTER + INTRA:         -11.258
REMARK INTER:                 -10.221
REMARK INTRA:                  -1.037
REMARK UNBOUND:                -1.468
REMARK SMILES CC1(C)C(C=C(Br)Br)C1C(=O)OC(C#N)c1cccc(Oc2ccccc2)c1
REMARK SMILES IDX 13 1 12 2 10 3 11 4 9 5 4 6 2 7 1 8 3 9 5 10 7 11 6 12 8 13
REMARK SMILES IDX 16 14 28 15 17 16 20 17 18 18 19 19 21 20 22 21 23 22 27 23
REMARK SMILES IDX 24 24 26 25 25 26 14 27 15 28
REMARK H PARENT
REMARK Flexibility Score: inf
ROOT
ATOM      1  C   UNL     1       1.018   3.520  -3.283  1.00  0.00     0.309 C
ENDROOT
BRANCH   1   2
ATOM      2  O   UNL     1       0.023   3.810  -4.274  1.00  0.00    -0.442 OA
BRANCH   2   3
ATOM      3  C   UNL     1      -0.749   4.900  -4.021  1.00  0.00     0.311 C
ATOM      4  O   UNL     1      -1.728   5.272  -4.652  1.00  0.00    -0.252 OA
BRANCH   3   5
ATOM      5  C   UNL     1      -0.260   5.646  -2.832  1.00  0.00     0.113 C
ATOM      6  C   UNL     1      -1.256   6.063  -1.799  1.00  0.00     0.035 C
ATOM      7  C   UNL     1      -0.595   7.093  -2.667  1.00  0.00    -0.014 C
ATOM      8  C   UNL     1      -1.444   7.772  -3.690  1.00  0.00     0.012 C
ATOM      9  C   UNL     1       0.466   7.973  -2.095  1.00  0.00     0.012 C
BRANCH   6  10
ATOM     10  C   UNL     1      -2.653   5.712  -2.002  1.00  0.00     0.001 C
ATOM     11  Br  UNL     1      -2.609   3.538  -0.171  1.00  0.00    -0.043 Br
ATOM     12  C   UNL     1      -3.348   4.719  -1.421  1.00  0.00     0.057 C
ATOM     13  Br  UNL     1      -5.157   4.437  -1.828  1.00  0.00    -0.043 Br
ENDBRANCH   6  10
ENDBRANCH   3   5
ENDBRANCH   2   3
ENDBRANCH   1   2
BRANCH   1  14
ATOM     14  C   UNL     1       0.573   2.378  -2.435  1.00  0.00     0.011 A
ATOM     15  C   UNL     1      -0.222   1.370  -2.982  1.00  0.00     0.055 A
ATOM     16  C   UNL     1       0.952   2.317  -1.094  1.00  0.00     0.009 A
ATOM     17  C   UNL     1      -0.637   0.302  -2.187  1.00  0.00     0.127 A
ATOM     18  C   UNL     1       0.535   1.248  -0.300  1.00  0.00     0.004 A
ATOM     19  C   UNL     1      -0.259   0.241  -0.846  1.00  0.00     0.047 A
BRANCH  17  20
ATOM     20  O   UNL     1      -1.413  -0.682  -2.720  1.00  0.00    -0.457 OA
BRANCH  20  21
ATOM     21  C   UNL     1      -2.695  -0.343  -3.121  1.00  0.00     0.127 A
ATOM     22  C   UNL     1      -3.416   0.569  -2.374  1.00  0.00     0.047 A
ATOM     23  C   UNL     1      -3.221  -0.927  -4.260  1.00  0.00     0.047 A
ATOM     24  C   UNL     1      -4.708   0.910  -2.777  1.00  0.00     0.004 A
ATOM     25  C   UNL     1      -4.512  -0.587  -4.663  1.00  0.00     0.004 A
ATOM     26  C   UNL     1      -5.255   0.332  -3.923  1.00  0.00     0.000 A
ENDBRANCH  20  21
ENDBRANCH  17  20
ENDBRANCH   1  14
BRANCH   1  27
ATOM     27  C   UNL     1       2.311   3.262  -3.949  1.00  0.00     0.113 C
ATOM     28  N   UNL     1       3.324   3.065  -4.481  1.00  0.00    -0.194 NA
ENDBRANCH   1  27
TORSDOF 8
ENDMDL
