MODEL 1
REMARK VINA RESULT:    -6.632      0.000      0.000
REMARK INTER + INTRA:          -8.282
REMARK INTER:                  -7.795
REMARK INTRA:                  -0.487
REMARK UNBOUND:                -0.487
REMARK SMILES Clc1ccc(C(c2ccc(Cl)cc2)C(Cl)(Cl)Cl)cc1
REMARK SMILES IDX 6 1 14 2 15 3 16 4 17 5 5 6 4 7 18 8 3 9 19 10 2 11 1 12
REMARK SMILES IDX 7 13 8 14 13 15 9 16 12 17 10 18 11 19
REMARK H PARENT
REMARK Flexibility Score: inf
ROOT
ATOM      1  C   UNL     1      -0.081   1.467  -1.614  1.00  0.00     0.101 C 
ENDROOT
BRANCH   1   2
ATOM      2  C   UNL     1       0.299   0.857  -0.200  1.00  0.00     0.201 C 
ATOM      3  Cl  UNL     1      -0.707   1.457   1.157  1.00  0.00    -0.083 Cl
ATOM      4  Cl  UNL     1       2.013   1.299   0.202  1.00  0.00    -0.083 Cl
ATOM      5  Cl  UNL     1       0.239  -0.946  -0.195  1.00  0.00    -0.083 Cl
ENDBRANCH   1   2
BRANCH   1   6
ATOM      6  C   UNL     1      -0.012   2.953  -1.716  1.00  0.00    -0.036 A 
ATOM      7  C   UNL     1       0.858   3.549  -2.628  1.00  0.00     0.006 A 
ATOM      8  C   UNL     1      -0.817   3.747  -0.898  1.00  0.00     0.006 A 
ATOM      9  C   UNL     1       0.924   4.939  -2.723  1.00  0.00     0.021 A 
ATOM     10  C   UNL     1      -0.752   5.137  -0.993  1.00  0.00     0.021 A 
ATOM     11  C   UNL     1       0.119   5.733  -1.905  1.00  0.00     0.041 A 
ATOM     12  Cl  UNL     1       0.200   7.449  -2.022  1.00  0.00    -0.084 Cl
ENDBRANCH   1   6
BRANCH   1  13
ATOM     13  C   UNL     1      -1.338   0.876  -2.302  1.00  0.00    -0.036 A 
ATOM     14  C   UNL     1      -2.562   1.338  -1.903  1.00  0.00     0.006 A 
ATOM     15  C   UNL     1      -1.152  -0.074  -3.267  1.00  0.00     0.006 A 
ATOM     16  C   UNL     1      -3.693   0.805  -2.522  1.00  0.00     0.021 A 
ATOM     17  C   UNL     1      -2.284  -0.607  -3.884  1.00  0.00     0.021 A 
ATOM     18  C   UNL     1      -3.554  -0.167  -3.512  1.00  0.00     0.041 A 
ATOM     19  Cl  UNL     1      -4.950  -0.825  -4.275  1.00  0.00    -0.084 Cl
ENDBRANCH   1  13
TORSDOF 3
ENDMDL
MODEL 2
REMARK VINA RESULT:    -6.622      0.194      1.947
REMARK INTER + INTRA:          -8.271
REMARK INTER:                  -7.812
REMARK INTRA:                  -0.459
REMARK UNBOUND:                -0.487
REMARK SMILES Clc1ccc(C(c2ccc(Cl)cc2)C(Cl)(Cl)Cl)cc1
REMARK SMILES IDX 6 1 14 2 15 3 16 4 17 5 5 6 4 7 18 8 3 9 19 10 2 11 1 12
REMARK SMILES IDX 7 13 8 14 13 15 9 16 12 17 10 18 11 19
REMARK H PARENT
REMARK Flexibility Score: inf
ROOT
ATOM      1  C   UNL     1      -0.012   1.483  -1.627  1.00  0.00     0.101 C 
ENDROOT
BRANCH   1   2
ATOM      2  C   UNL     1       0.367   0.946  -0.183  1.00  0.00     0.201 C 
ATOM      3  Cl  UNL     1       2.041   1.329   0.331  1.00  0.00    -0.083 Cl
ATOM      4  Cl  UNL     1       0.229  -0.863  -0.161  1.00  0.00    -0.083 Cl
ATOM      5  Cl  UNL     1      -0.767   1.545   1.087  1.00  0.00    -0.083 Cl
ENDBRANCH   1   2
BRANCH   1   6
ATOM      6  C   UNL     1       0.076   2.960  -1.809  1.00  0.00    -0.036 A 
ATOM      7  C   UNL     1      -0.565   3.813  -0.910  1.00  0.00     0.006 A 
ATOM      8  C   UNL     1       0.796   3.490  -2.880  1.00  0.00     0.006 A 
ATOM      9  C   UNL     1      -0.485   5.195  -1.081  1.00  0.00     0.021 A 
ATOM     10  C   UNL     1       0.877   4.872  -3.051  1.00  0.00     0.021 A 
ATOM     11  C   UNL     1       0.237   5.724  -2.152  1.00  0.00     0.041 A 
ATOM     12  Cl  UNL     1       0.336   7.430  -2.363  1.00  0.00    -0.084 Cl
ENDBRANCH   1   6
BRANCH   1  13
ATOM     13  C   UNL     1      -1.278   0.872  -2.278  1.00  0.00    -0.036 A 
ATOM     14  C   UNL     1      -1.110  -0.150  -3.170  1.00  0.00     0.006 A 
ATOM     15  C   UNL     1      -2.492   1.391  -1.924  1.00  0.00     0.006 A 
ATOM     16  C   UNL     1      -2.250  -0.698  -3.756  1.00  0.00     0.021 A 
ATOM     17  C   UNL     1      -3.633   0.843  -2.512  1.00  0.00     0.021 A 
ATOM     18  C   UNL     1      -3.512  -0.202  -3.427  1.00  0.00     0.041 A 
ATOM     19  Cl  UNL     1      -4.919  -0.878  -4.152  1.00  0.00    -0.084 Cl
ENDBRANCH   1  13
TORSDOF 3
ENDMDL
MODEL 3
REMARK VINA RESULT:    -6.513      2.248      4.632
REMARK INTER + INTRA:          -8.142
REMARK INTER:                  -7.538
REMARK INTRA:                  -0.605
REMARK UNBOUND:                -0.487
REMARK SMILES Clc1ccc(C(c2ccc(Cl)cc2)C(Cl)(Cl)Cl)cc1
REMARK SMILES IDX 6 1 14 2 15 3 16 4 17 5 5 6 4 7 18 8 3 9 19 10 2 11 1 12
REMARK SMILES IDX 7 13 8 14 13 15 9 16 12 17 10 18 11 19
REMARK H PARENT
REMARK Flexibility Score: inf
ROOT
ATOM      1  C   UNL     1      -1.426   1.644  -1.472  1.00  0.00     0.101 C 
ENDROOT
BRANCH   1   2
ATOM      2  C   UNL     1      -1.783   0.684  -2.683  1.00  0.00     0.201 C 
ATOM      3  Cl  UNL     1      -3.541   0.508  -2.992  1.00  0.00    -0.083 Cl
ATOM      4  Cl  UNL     1      -1.159  -0.983  -2.333  1.00  0.00    -0.083 Cl
ATOM      5  Cl  UNL     1      -0.988   1.198  -4.220  1.00  0.00    -0.083 Cl
ENDBRANCH   1   2
BRANCH   1   6
ATOM      6  C   UNL     1      -1.957   3.034  -1.571  1.00  0.00    -0.036 A 
ATOM      7  C   UNL     1      -2.148   3.619  -2.822  1.00  0.00     0.006 A 
ATOM      8  C   UNL     1      -2.262   3.749  -0.413  1.00  0.00     0.006 A 
ATOM      9  C   UNL     1      -2.644   4.920  -2.916  1.00  0.00     0.021 A 
ATOM     10  C   UNL     1      -2.758   5.049  -0.506  1.00  0.00     0.021 A 
ATOM     11  C   UNL     1      -2.949   5.634  -1.757  1.00  0.00     0.041 A 
ATOM     12  Cl  UNL     1      -3.561   7.240  -1.871  1.00  0.00    -0.084 Cl
ENDBRANCH   1   6
BRANCH   1  13
ATOM     13  C   UNL     1       0.037   1.596  -0.965  1.00  0.00    -0.036 A 
ATOM     14  C   UNL     1       0.303   0.860   0.155  1.00  0.00     0.006 A 
ATOM     15  C   UNL     1       0.980   2.294  -1.667  1.00  0.00     0.006 A 
ATOM     16  C   UNL     1       1.620   0.819   0.612  1.00  0.00     0.021 A 
ATOM     17  C   UNL     1       2.297   2.253  -1.210  1.00  0.00     0.021 A 
ATOM     18  C   UNL     1       2.617   1.515  -0.071  1.00  0.00     0.041 A 
ATOM     19  Cl  UNL     1       4.243   1.465   0.493  1.00  0.00    -0.084 Cl
ENDBRANCH   1  13
TORSDOF 3
ENDMDL
MODEL 4
REMARK VINA RESULT:    -6.512      2.245      4.663
REMARK INTER + INTRA:          -8.141
REMARK INTER:                  -7.526
REMARK INTRA:                  -0.615
REMARK UNBOUND:                -0.487
REMARK SMILES Clc1ccc(C(c2ccc(Cl)cc2)C(Cl)(Cl)Cl)cc1
REMARK SMILES IDX 6 1 14 2 15 3 16 4 17 5 5 6 4 7 18 8 3 9 19 10 2 11 1 12
REMARK SMILES IDX 7 13 8 14 13 15 9 16 12 17 10 18 11 19
REMARK H PARENT
REMARK Flexibility Score: inf
ROOT
ATOM      1  C   UNL     1      -1.382   1.637  -1.459  1.00  0.00     0.101 C 
ENDROOT
BRANCH   1   2
ATOM      2  C   UNL     1      -1.749   0.679  -2.669  1.00  0.00     0.201 C 
ATOM      3  Cl  UNL     1      -3.508   0.526  -2.981  1.00  0.00    -0.083 Cl
ATOM      4  Cl  UNL     1      -1.148  -0.995  -2.312  1.00  0.00    -0.083 Cl
ATOM      5  Cl  UNL     1      -0.944   1.178  -4.204  1.00  0.00    -0.083 Cl
ENDBRANCH   1   2
BRANCH   1   6
ATOM      6  C   UNL     1      -1.909   3.029  -1.555  1.00  0.00    -0.036 A 
ATOM      7  C   UNL     1      -2.097   3.619  -2.804  1.00  0.00     0.006 A 
ATOM      8  C   UNL     1      -2.214   3.741  -0.394  1.00  0.00     0.006 A 
ATOM      9  C   UNL     1      -2.590   4.921  -2.894  1.00  0.00     0.021 A 
ATOM     10  C   UNL     1      -2.707   5.043  -0.484  1.00  0.00     0.021 A 
ATOM     11  C   UNL     1      -2.895   5.633  -1.733  1.00  0.00     0.041 A 
ATOM     12  Cl  UNL     1      -3.502   7.240  -1.843  1.00  0.00    -0.084 Cl
ENDBRANCH   1   6
BRANCH   1  13
ATOM     13  C   UNL     1       0.085   1.585  -0.962  1.00  0.00    -0.036 A 
ATOM     14  C   UNL     1       1.034   2.236  -1.699  1.00  0.00     0.006 A 
ATOM     15  C   UNL     1       0.346   0.890   0.186  1.00  0.00     0.006 A 
ATOM     16  C   UNL     1       2.354   2.187  -1.251  1.00  0.00     0.021 A 
ATOM     17  C   UNL     1       1.666   0.841   0.633  1.00  0.00     0.021 A 
ATOM     18  C   UNL     1       2.671   1.490  -0.085  1.00  0.00     0.041 A 
ATOM     19  Cl  UNL     1       4.300   1.429   0.467  1.00  0.00    -0.084 Cl
ENDBRANCH   1  13
TORSDOF 3
ENDMDL
MODEL 5
REMARK VINA RESULT:    -6.139      2.278      5.245
REMARK INTER + INTRA:          -7.703
REMARK INTER:                  -7.054
REMARK INTRA:                  -0.649
REMARK UNBOUND:                -0.487
REMARK SMILES Clc1ccc(C(c2ccc(Cl)cc2)C(Cl)(Cl)Cl)cc1
REMARK SMILES IDX 6 1 14 2 15 3 16 4 17 5 5 6 4 7 18 8 3 9 19 10 2 11 1 12
REMARK SMILES IDX 7 13 8 14 13 15 9 16 12 17 10 18 11 19
REMARK H PARENT
REMARK Flexibility Score: inf
ROOT
ATOM      1  C   UNL     1      -1.565   2.652  -2.455  1.00  0.00     0.101 C 
ENDROOT
BRANCH   1   2
ATOM      2  C   UNL     1      -2.730   1.598  -2.670  1.00  0.00     0.201 C 
ATOM      3  Cl  UNL     1      -2.197  -0.113  -2.612  1.00  0.00    -0.083 Cl
ATOM      4  Cl  UNL     1      -3.469   1.846  -4.308  1.00  0.00    -0.083 Cl
ATOM      5  Cl  UNL     1      -4.072   1.813  -1.483  1.00  0.00    -0.083 Cl
ENDBRANCH   1   2
BRANCH   1   6
ATOM      6  C   UNL     1      -0.473   2.229  -1.532  1.00  0.00    -0.036 A 
ATOM      7  C   UNL     1       0.860   2.438  -1.886  1.00  0.00     0.006 A 
ATOM      8  C   UNL     1      -0.784   1.621  -0.315  1.00  0.00     0.006 A 
ATOM      9  C   UNL     1       1.882   2.041  -1.023  1.00  0.00     0.021 A 
ATOM     10  C   UNL     1       0.237   1.225   0.548  1.00  0.00     0.021 A 
ATOM     11  C   UNL     1       1.570   1.434   0.194  1.00  0.00     0.041 A 
ATOM     12  Cl  UNL     1       2.830   0.944   1.259  1.00  0.00    -0.084 Cl
ENDBRANCH   1   6
BRANCH   1  13
ATOM     13  C   UNL     1      -1.999   4.123  -2.234  1.00  0.00    -0.036 A 
ATOM     14  C   UNL     1      -2.205   4.902  -3.338  1.00  0.00     0.006 A 
ATOM     15  C   UNL     1      -2.151   4.558  -0.947  1.00  0.00     0.006 A 
ATOM     16  C   UNL     1      -2.595   6.226  -3.139  1.00  0.00     0.021 A 
ATOM     17  C   UNL     1      -2.540   5.883  -0.748  1.00  0.00     0.021 A 
ATOM     18  C   UNL     1      -2.763   6.717  -1.844  1.00  0.00     0.041 A 
ATOM     19  Cl  UNL     1      -3.243   8.351  -1.598  1.00  0.00    -0.084 Cl
ENDBRANCH   1  13
TORSDOF 3
ENDMDL
