MODEL 1
REMARK VINA RESULT:    -6.870      0.000      0.000
REMARK INTER + INTRA:         -11.558
REMARK INTER:                 -10.083
REMARK INTRA:                  -1.475
REMARK UNBOUND:                -1.475
REMARK SMILES CC1(C)C(C=C(Br)Br)C1C(=O)OC(C#N)c1cccc(Oc2ccccc2)c1
REMARK SMILES IDX 13 1 12 2 10 3 11 4 9 5 4 6 2 7 1 8 3 9 5 10 7 11 6 12 8 13
REMARK SMILES IDX 16 14 28 15 17 16 20 17 18 18 19 19 21 20 22 21 23 22 27 23
REMARK SMILES IDX 24 24 26 25 25 26 14 27 15 28
REMARK H PARENT
REMARK Flexibility Score: inf
ROOT
ATOM      1  C   UNL     1      -4.332   1.516  -2.867  1.00  0.00     0.309 C
ENDROOT
BRANCH   1   2
ATOM      2  O   UNL     1      -3.008   1.623  -3.408  1.00  0.00    -0.442 OA
BRANCH   2   3
ATOM      3  C   UNL     1      -2.005   1.249  -2.569  1.00  0.00     0.311 C
ATOM      4  O   UNL     1      -1.782   0.126  -2.141  1.00  0.00    -0.252 OA
BRANCH   3   5
ATOM      5  C   UNL     1      -1.152   2.407  -2.196  1.00  0.00     0.113 C
ATOM      6  C   UNL     1      -0.255   2.274  -1.008  1.00  0.00     0.035 C
ATOM      7  C   UNL     1      -1.446   3.184  -0.953  1.00  0.00    -0.014 C
ATOM      8  C   UNL     1      -2.584   2.770  -0.081  1.00  0.00     0.012 C
ATOM      9  C   UNL     1      -1.251   4.663  -1.016  1.00  0.00     0.012 C
BRANCH   6  10
ATOM     10  C   UNL     1      -0.254   1.014  -0.280  1.00  0.00     0.001 C
ATOM     11  Br  UNL     1       2.461   1.226   0.535  1.00  0.00    -0.043 Br
ATOM     12  C   UNL     1       0.763   0.451   0.395  1.00  0.00     0.057 C
ATOM     13  Br  UNL     1       0.550  -1.193   1.272  1.00  0.00    -0.043 Br
ENDBRANCH   6  10
ENDBRANCH   3   5
ENDBRANCH   2   3
ENDBRANCH   1   2
BRANCH   1  14
ATOM     14  C   UNL     1      -5.006   2.844  -2.905  1.00  0.00     0.011 A
ATOM     15  C   UNL     1      -4.408   3.912  -3.576  1.00  0.00     0.055 A
ATOM     16  C   UNL     1      -6.235   3.021  -2.270  1.00  0.00     0.009 A
ATOM     17  C   UNL     1      -5.039   5.154  -3.611  1.00  0.00     0.127 A
ATOM     18  C   UNL     1      -6.866   4.264  -2.306  1.00  0.00     0.004 A
ATOM     19  C   UNL     1      -6.268   5.331  -2.976  1.00  0.00     0.047 A
BRANCH  17  20
ATOM     20  O   UNL     1      -4.456   6.197  -4.265  1.00  0.00    -0.457 OA
BRANCH  20  21
ATOM     21  C   UNL     1      -3.369   6.807  -3.662  1.00  0.00     0.127 A
ATOM     22  C   UNL     1      -3.550   7.473  -2.464  1.00  0.00     0.047 A
ATOM     23  C   UNL     1      -2.130   6.734  -4.273  1.00  0.00     0.047 A
ATOM     24  C   UNL     1      -2.455   8.089  -1.856  1.00  0.00     0.004 A
ATOM     25  C   UNL     1      -1.036   7.350  -3.666  1.00  0.00     0.004 A
ATOM     26  C   UNL     1      -1.197   8.026  -2.457  1.00  0.00     0.000 A
ENDBRANCH  20  21
ENDBRANCH  17  20
ENDBRANCH   1  14
BRANCH   1  27
ATOM     27  C   UNL     1      -5.080   0.478  -3.606  1.00  0.00     0.113 C
ATOM     28  N   UNL     1      -5.671  -0.341  -4.177  1.00  0.00    -0.194 NA
ENDBRANCH   1  27
TORSDOF 8
ENDMDL
MODEL 2
REMARK VINA RESULT:    -6.721      3.353      5.028
REMARK INTER + INTRA:         -11.340
REMARK INTER:                  -9.909
REMARK INTRA:                  -1.431
REMARK UNBOUND:                -1.475
REMARK SMILES CC1(C)C(C=C(Br)Br)C1C(=O)OC(C#N)c1cccc(Oc2ccccc2)c1
REMARK SMILES IDX 13 1 12 2 10 3 11 4 9 5 4 6 2 7 1 8 3 9 5 10 7 11 6 12 8 13
REMARK SMILES IDX 16 14 28 15 17 16 20 17 18 18 19 19 21 20 22 21 23 22 27 23
REMARK SMILES IDX 24 24 26 25 25 26 14 27 15 28
REMARK H PARENT
REMARK Flexibility Score: inf
ROOT
ATOM      1  C   UNL     1       1.064   3.184  -3.848  1.00  0.00     0.309 C
ENDROOT
BRANCH   1   2
ATOM      2  O   UNL     1       0.782   2.157  -2.888  1.00  0.00    -0.442 OA
BRANCH   2   3
ATOM      3  C   UNL     1      -0.505   1.719  -2.865  1.00  0.00     0.311 C
ATOM      4  O   UNL     1      -1.394   2.003  -3.655  1.00  0.00    -0.252 OA
BRANCH   3   5
ATOM      5  C   UNL     1      -0.746   0.806  -1.718  1.00  0.00     0.113 C
ATOM      6  C   UNL     1      -1.226   1.395  -0.431  1.00  0.00     0.035 C
ATOM      7  C   UNL     1       0.163   0.838  -0.532  1.00  0.00    -0.014 C
ATOM      8  C   UNL     1       1.294   1.812  -0.500  1.00  0.00     0.012 C
ATOM      9  C   UNL     1       0.485  -0.470   0.111  1.00  0.00     0.012 C
BRANCH   6  10
ATOM     10  C   UNL     1      -1.443   2.833  -0.366  1.00  0.00     0.001 C
ATOM     11  Br  UNL     1      -4.124   2.699  -1.301  1.00  0.00    -0.043 Br
ATOM     12  C   UNL     1      -2.556   3.515  -0.684  1.00  0.00     0.057 C
ATOM     13  Br  UNL     1      -2.625   5.382  -0.527  1.00  0.00    -0.043 Br
ENDBRANCH   6  10
ENDBRANCH   3   5
ENDBRANCH   2   3
ENDBRANCH   1   2
BRANCH   1  14
ATOM     14  C   UNL     1       0.705   4.517  -3.286  1.00  0.00     0.011 A
ATOM     15  C   UNL     1      -0.143   5.369  -3.995  1.00  0.00     0.055 A
ATOM     16  C   UNL     1       1.217   4.913  -2.050  1.00  0.00     0.009 A
ATOM     17  C   UNL     1      -0.478   6.616  -3.469  1.00  0.00     0.127 A
ATOM     18  C   UNL     1       0.881   6.161  -1.524  1.00  0.00     0.004 A
ATOM     19  C   UNL     1       0.034   7.012  -2.233  1.00  0.00     0.047 A
BRANCH  17  20
ATOM     20  O   UNL     1      -1.305   7.447  -4.160  1.00  0.00    -0.457 OA
BRANCH  20  21
ATOM     21  C   UNL     1      -2.605   7.589  -3.703  1.00  0.00     0.127 A
ATOM     22  C   UNL     1      -2.961   8.744  -3.032  1.00  0.00     0.047 A
ATOM     23  C   UNL     1      -3.513   6.570  -3.929  1.00  0.00     0.047 A
ATOM     24  C   UNL     1      -4.270   8.887  -2.571  1.00  0.00     0.004 A
ATOM     25  C   UNL     1      -4.821   6.712  -3.468  1.00  0.00     0.004 A
ATOM     26  C   UNL     1      -5.201   7.871  -2.789  1.00  0.00     0.000 A
ENDBRANCH  20  21
ENDBRANCH  17  20
ENDBRANCH   1  14
BRANCH   1  27
ATOM     27  C   UNL     1       2.482   3.101  -4.252  1.00  0.00     0.113 C
ATOM     28  N   UNL     1       3.593   3.033  -4.581  1.00  0.00    -0.194 NA
ENDBRANCH   1  27
TORSDOF 8
ENDMDL
MODEL 3
REMARK VINA RESULT:    -6.661      2.020      4.191
REMARK INTER + INTRA:         -11.252
REMARK INTER:                 -10.457
REMARK INTRA:                  -0.794
REMARK UNBOUND:                -1.475
REMARK SMILES CC1(C)C(C=C(Br)Br)C1C(=O)OC(C#N)c1cccc(Oc2ccccc2)c1
REMARK SMILES IDX 13 1 12 2 10 3 11 4 9 5 4 6 2 7 1 8 3 9 5 10 7 11 6 12 8 13
REMARK SMILES IDX 16 14 28 15 17 16 20 17 18 18 19 19 21 20 22 21 23 22 27 23
REMARK SMILES IDX 24 24 26 25 25 26 14 27 15 28
REMARK H PARENT
REMARK Flexibility Score: inf
ROOT
ATOM      1  C   UNL     1      -4.220   1.578  -2.579  1.00  0.00     0.309 C
ENDROOT
BRANCH   1   2
ATOM      2  O   UNL     1      -2.937   1.701  -3.207  1.00  0.00    -0.442 OA
BRANCH   2   3
ATOM      3  C   UNL     1      -1.898   1.155  -2.519  1.00  0.00     0.311 C
ATOM      4  O   UNL     1      -1.782  -0.008  -2.160  1.00  0.00    -0.252 OA
BRANCH   3   5
ATOM      5  C   UNL     1      -0.851   2.168  -2.226  1.00  0.00     0.113 C
ATOM      6  C   UNL     1       0.133   1.877  -1.139  1.00  0.00     0.035 C
ATOM      7  C   UNL     1      -0.901   2.948  -0.952  1.00  0.00    -0.014 C
ATOM      8  C   UNL     1      -1.993   2.682   0.030  1.00  0.00     0.012 C
ATOM      9  C   UNL     1      -0.499   4.384  -1.021  1.00  0.00     0.012 C
BRANCH   6  10
ATOM     10  C   UNL     1       0.023   0.612  -0.427  1.00  0.00     0.001 C
ATOM     11  Br  UNL     1       2.347   1.040   1.154  1.00  0.00    -0.043 Br
ATOM     12  C   UNL     1       0.837   0.128   0.527  1.00  0.00     0.057 C
ATOM     13  Br  UNL     1       0.512  -1.539   1.322  1.00  0.00    -0.043 Br
ENDBRANCH   6  10
ENDBRANCH   3   5
ENDBRANCH   2   3
ENDBRANCH   1   2
BRANCH   1  14
ATOM     14  C   UNL     1      -4.896   2.905  -2.539  1.00  0.00     0.011 A
ATOM     15  C   UNL     1      -6.290   2.978  -2.501  1.00  0.00     0.055 A
ATOM     16  C   UNL     1      -4.137   4.075  -2.537  1.00  0.00     0.009 A
ATOM     17  C   UNL     1      -6.921   4.220  -2.463  1.00  0.00     0.127 A
ATOM     18  C   UNL     1      -4.770   5.317  -2.500  1.00  0.00     0.004 A
ATOM     19  C   UNL     1      -6.162   5.390  -2.463  1.00  0.00     0.047 A
BRANCH  17  20
ATOM     20  O   UNL     1      -8.281   4.293  -2.427  1.00  0.00    -0.457 OA
BRANCH  20  21
ATOM     21  C   UNL     1      -8.889   4.351  -1.184  1.00  0.00     0.127 A
ATOM     22  C   UNL     1      -8.738   5.489  -0.413  1.00  0.00     0.047 A
ATOM     23  C   UNL     1      -9.632   3.269  -0.746  1.00  0.00     0.047 A
ATOM     24  C   UNL     1      -9.351   5.549   0.839  1.00  0.00     0.004 A
ATOM     25  C   UNL     1     -10.243   3.328   0.506  1.00  0.00     0.004 A
ATOM     26  C   UNL     1     -10.104   4.468   1.299  1.00  0.00     0.000 A
ENDBRANCH  20  21
ENDBRANCH  17  20
ENDBRANCH   1  14
BRANCH   1  27
ATOM     27  C   UNL     1      -5.016   0.556  -3.289  1.00  0.00     0.113 C
ATOM     28  N   UNL     1      -5.638  -0.243  -3.856  1.00  0.00    -0.194 NA
ENDBRANCH   1  27
TORSDOF 8
ENDMDL
MODEL 4
REMARK VINA RESULT:    -6.608      1.895      2.442
REMARK INTER + INTRA:         -11.173
REMARK INTER:                  -9.632
REMARK INTRA:                  -1.541
REMARK UNBOUND:                -1.475
REMARK SMILES CC1(C)C(C=C(Br)Br)C1C(=O)OC(C#N)c1cccc(Oc2ccccc2)c1
REMARK SMILES IDX 13 1 12 2 10 3 11 4 9 5 4 6 2 7 1 8 3 9 5 10 7 11 6 12 8 13
REMARK SMILES IDX 16 14 28 15 17 16 20 17 18 18 19 19 21 20 22 21 23 22 27 23
REMARK SMILES IDX 24 24 26 25 25 26 14 27 15 28
REMARK H PARENT
REMARK Flexibility Score: inf
ROOT
ATOM      1  C   UNL     1      -4.630   1.204  -3.030  1.00  0.00     0.309 C
ENDROOT
BRANCH   1   2
ATOM      2  O   UNL     1      -3.265   1.321  -3.455  1.00  0.00    -0.442 OA
BRANCH   2   3
ATOM      3  C   UNL     1      -2.337   0.907  -2.551  1.00  0.00     0.311 C
ATOM      4  O   UNL     1      -1.593  -0.059  -2.649  1.00  0.00    -0.252 OA
BRANCH   3   5
ATOM      5  C   UNL     1      -2.311   1.792  -1.357  1.00  0.00     0.113 C
ATOM      6  C   UNL     1      -1.480   3.034  -1.414  1.00  0.00     0.035 C
ATOM      7  C   UNL     1      -1.070   1.893  -0.529  1.00  0.00    -0.014 C
ATOM      8  C   UNL     1       0.144   1.122  -0.928  1.00  0.00     0.012 C
ATOM      9  C   UNL     1      -1.249   2.002   0.948  1.00  0.00     0.012 C
BRANCH   6  10
ATOM     10  C   UNL     1      -0.747   3.321  -2.637  1.00  0.00     0.001 C
ATOM     11  Br  UNL     1       0.546   5.626  -1.591  1.00  0.00    -0.043 Br
ATOM     12  C   UNL     1       0.110   4.330  -2.869  1.00  0.00     0.057 C
ATOM     13  Br  UNL     1       0.955   4.519  -4.532  1.00  0.00    -0.043 Br
ENDBRANCH   6  10
ENDBRANCH   3   5
ENDBRANCH   2   3
ENDBRANCH   1   2
BRANCH   1  14
ATOM     14  C   UNL     1      -5.272   2.548  -3.003  1.00  0.00     0.011 A
ATOM     15  C   UNL     1      -4.782   3.572  -3.815  1.00  0.00     0.055 A
ATOM     16  C   UNL     1      -6.364   2.783  -2.168  1.00  0.00     0.009 A
ATOM     17  C   UNL     1      -5.383   4.830  -3.790  1.00  0.00     0.127 A
ATOM     18  C   UNL     1      -6.965   4.042  -2.144  1.00  0.00     0.004 A
ATOM     19  C   UNL     1      -6.475   5.065  -2.954  1.00  0.00     0.047 A
BRANCH  17  20
ATOM     20  O   UNL     1      -4.905   5.830  -4.581  1.00  0.00    -0.457 OA
BRANCH  20  21
ATOM     21  C   UNL     1      -3.920   6.650  -4.056  1.00  0.00     0.127 A
ATOM     22  C   UNL     1      -4.264   7.588  -3.100  1.00  0.00     0.047 A
ATOM     23  C   UNL     1      -2.618   6.510  -4.501  1.00  0.00     0.047 A
ATOM     24  C   UNL     1      -3.273   8.415  -2.571  1.00  0.00     0.004 A
ATOM     25  C   UNL     1      -1.627   7.337  -3.973  1.00  0.00     0.004 A
ATOM     26  C   UNL     1      -1.954   8.289  -3.007  1.00  0.00     0.000 A
ENDBRANCH  20  21
ENDBRANCH  17  20
ENDBRANCH   1  14
BRANCH   1  27
ATOM     27  C   UNL     1      -5.337   0.254  -3.913  1.00  0.00     0.113 C
ATOM     28  N   UNL     1      -5.883  -0.498  -4.609  1.00  0.00    -0.194 NA
ENDBRANCH   1  27
TORSDOF 8
ENDMDL
MODEL 5
REMARK VINA RESULT:    -6.485      2.162      2.945
REMARK INTER + INTRA:         -10.992
REMARK INTER:                  -9.642
REMARK INTRA:                  -1.350
REMARK UNBOUND:                -1.475
REMARK SMILES CC1(C)C(C=C(Br)Br)C1C(=O)OC(C#N)c1cccc(Oc2ccccc2)c1
REMARK SMILES IDX 13 1 12 2 10 3 11 4 9 5 4 6 2 7 1 8 3 9 5 10 7 11 6 12 8 13
REMARK SMILES IDX 16 14 28 15 17 16 20 17 18 18 19 19 21 20 22 21 23 22 27 23
REMARK SMILES IDX 24 24 26 25 25 26 14 27 15 28
REMARK H PARENT
REMARK Flexibility Score: inf
ROOT
ATOM      1  C   UNL     1      -2.673   1.024  -3.262  1.00  0.00     0.309 C
ENDROOT
BRANCH   1   2
ATOM      2  O   UNL     1      -1.497   1.632  -3.816  1.00  0.00    -0.442 OA
BRANCH   2   3
ATOM      3  C   UNL     1      -0.387   1.569  -3.033  1.00  0.00     0.311 C
ATOM      4  O   UNL     1       0.722   2.015  -3.289  1.00  0.00    -0.252 OA
BRANCH   3   5
ATOM      5  C   UNL     1      -0.664   0.861  -1.756  1.00  0.00     0.113 C
ATOM      6  C   UNL     1      -1.044   1.675  -0.561  1.00  0.00     0.035 C
ATOM      7  C   UNL     1       0.287   0.986  -0.609  1.00  0.00    -0.014 C
ATOM      8  C   UNL     1       1.498   1.846  -0.751  1.00  0.00     0.012 C
ATOM      9  C   UNL     1       0.518  -0.237   0.215  1.00  0.00     0.012 C
BRANCH   6  10
ATOM     10  C   UNL     1      -1.134   3.120  -0.709  1.00  0.00     0.001 C
ATOM     11  Br  UNL     1      -3.660   3.323   0.577  1.00  0.00    -0.043 Br
ATOM     12  C   UNL     1      -2.125   3.932  -0.304  1.00  0.00     0.057 C
ATOM     13  Br  UNL     1      -2.041   5.782  -0.596  1.00  0.00    -0.043 Br
ENDBRANCH   6  10
ENDBRANCH   3   5
ENDBRANCH   2   3
ENDBRANCH   1   2
BRANCH   1  14
ATOM     14  C   UNL     1      -3.787   2.014  -3.224  1.00  0.00     0.011 A
ATOM     15  C   UNL     1      -3.699   3.193  -3.966  1.00  0.00     0.055 A
ATOM     16  C   UNL     1      -4.918   1.761  -2.448  1.00  0.00     0.009 A
ATOM     17  C   UNL     1      -4.742   4.118  -3.930  1.00  0.00     0.127 A
ATOM     18  C   UNL     1      -5.960   2.687  -2.412  1.00  0.00     0.004 A
ATOM     19  C   UNL     1      -5.872   3.866  -3.153  1.00  0.00     0.047 A
BRANCH  17  20
ATOM     20  O   UNL     1      -4.657   5.269  -4.653  1.00  0.00    -0.457 OA
BRANCH  20  21
ATOM     21  C   UNL     1      -4.055   6.362  -4.052  1.00  0.00     0.127 A
ATOM     22  C   UNL     1      -4.786   7.132  -3.167  1.00  0.00     0.047 A
ATOM     23  C   UNL     1      -2.737   6.655  -4.354  1.00  0.00     0.047 A
ATOM     24  C   UNL     1      -4.180   8.234  -2.563  1.00  0.00     0.004 A
ATOM     25  C   UNL     1      -2.131   7.757  -3.751  1.00  0.00     0.004 A
ATOM     26  C   UNL     1      -2.851   8.546  -2.854  1.00  0.00     0.000 A
ENDBRANCH  20  21
ENDBRANCH  17  20
ENDBRANCH   1  14
BRANCH   1  27
ATOM     27  C   UNL     1      -3.012  -0.183  -4.042  1.00  0.00     0.113 C
ATOM     28  N   UNL     1      -3.289  -1.132  -4.650  1.00  0.00    -0.194 NA
ENDBRANCH   1  27
TORSDOF 8
ENDMDL
