MODEL 1
REMARK VINA RESULT:    -6.556      0.000      0.000
REMARK INTER + INTRA:         -12.409
REMARK INTER:                  -9.238
REMARK INTRA:                  -3.171
REMARK UNBOUND:                -3.171
REMARK SMILES CC1(C)[C@H](C=C(Cl)Cl)[C@H]1C(=O)OCc1cccc(Oc2ccccc2)c1
REMARK SMILES IDX 13 1 12 2 10 3 11 4 9 5 4 6 2 7 1 8 3 9 5 10 7 11 6 12 8 13
REMARK SMILES IDX 14 14 26 15 15 16 18 17 16 18 17 19 19 20 20 21 21 22 25 23
REMARK SMILES IDX 22 24 24 25 23 26
REMARK H PARENT
REMARK Flexibility Score: inf
ROOT
ATOM      1  C   UNL     1      -0.489   6.822  -3.195  1.00  0.00     0.268 C 
ENDROOT
BRANCH   1   2
ATOM      2  O   UNL     1      -0.310   5.434  -2.944  1.00  0.00    -0.461 OA
BRANCH   2   3
ATOM      3  C   UNL     1       0.035   5.101  -1.667  1.00  0.00     0.310 C 
ATOM      4  O   UNL     1       0.723   5.761  -0.902  1.00  0.00    -0.252 OA
BRANCH   3   5
ATOM      5  C   UNL     1      -0.534   3.789  -1.265  1.00  0.00     0.113 C 
ATOM      6  C   UNL     1      -1.714   3.267  -2.021  1.00  0.00     0.035 C 
ATOM      7  C   UNL     1      -1.873   3.726  -0.601  1.00  0.00    -0.014 C 
ATOM      8  C   UNL     1      -2.132   2.682   0.433  1.00  0.00     0.012 C 
ATOM      9  C   UNL     1      -2.552   5.023  -0.313  1.00  0.00     0.012 C 
BRANCH   6  10
ATOM     10  C   UNL     1      -1.752   1.848  -2.346  1.00  0.00     0.011 C 
ATOM     11  Cl  UNL     1      -0.151   2.068  -4.502  1.00  0.00    -0.071 Cl
ATOM     12  C   UNL     1      -1.137   1.224  -3.362  1.00  0.00     0.103 C 
ATOM     13  Cl  UNL     1      -1.313  -0.483  -3.576  1.00  0.00    -0.071 Cl
ENDBRANCH   6  10
ENDBRANCH   3   5
ENDBRANCH   2   3
ENDBRANCH   1   2
BRANCH   1  14
ATOM     14  C   UNL     1      -1.932   7.170  -3.051  1.00  0.00    -0.007 A 
ATOM     15  C   UNL     1      -2.907   6.356  -3.629  1.00  0.00     0.054 A 
ATOM     16  C   UNL     1      -2.307   8.308  -2.337  1.00  0.00     0.007 A 
ATOM     17  C   UNL     1      -4.256   6.682  -3.493  1.00  0.00     0.127 A 
ATOM     18  C   UNL     1      -3.657   8.634  -2.203  1.00  0.00     0.004 A 
ATOM     19  C   UNL     1      -4.631   7.820  -2.781  1.00  0.00     0.047 A 
BRANCH  17  20
ATOM     20  O   UNL     1      -5.207   5.888  -4.058  1.00  0.00    -0.457 OA
BRANCH  20  21
ATOM     21  C   UNL     1      -5.231   4.552  -3.694  1.00  0.00     0.127 A 
ATOM     22  C   UNL     1      -5.548   4.215  -2.390  1.00  0.00     0.047 A 
ATOM     23  C   UNL     1      -4.936   3.590  -4.642  1.00  0.00     0.047 A 
ATOM     24  C   UNL     1      -5.571   2.870  -2.024  1.00  0.00     0.004 A 
ATOM     25  C   UNL     1      -4.960   2.244  -4.275  1.00  0.00     0.004 A 
ATOM     26  C   UNL     1      -5.278   1.884  -2.965  1.00  0.00     0.000 A 
ENDBRANCH  20  21
ENDBRANCH  17  20
ENDBRANCH   1  14
TORSDOF 7
ENDMDL
MODEL 2
REMARK VINA RESULT:    -6.399      3.339      5.337
REMARK INTER + INTRA:         -12.189
REMARK INTER:                 -10.005
REMARK INTRA:                  -2.184
REMARK UNBOUND:                -3.171
REMARK SMILES CC1(C)[C@H](C=C(Cl)Cl)[C@H]1C(=O)OCc1cccc(Oc2ccccc2)c1
REMARK SMILES IDX 13 1 12 2 10 3 11 4 9 5 4 6 2 7 1 8 3 9 5 10 7 11 6 12 8 13
REMARK SMILES IDX 14 14 26 15 15 16 18 17 16 18 17 19 19 20 20 21 21 22 25 23
REMARK SMILES IDX 22 24 24 25 23 26
REMARK H PARENT
REMARK Flexibility Score: inf
ROOT
ATOM      1  C   UNL     1      -2.847   3.797   0.111  1.00  0.00     0.268 C 
ENDROOT
BRANCH   1   2
ATOM      2  O   UNL     1      -2.373   5.114  -0.140  1.00  0.00    -0.461 OA
BRANCH   2   3
ATOM      3  C   UNL     1      -1.233   5.204  -0.886  1.00  0.00     0.310 C 
ATOM      4  O   UNL     1      -0.255   4.474  -0.812  1.00  0.00    -0.252 OA
BRANCH   3   5
ATOM      5  C   UNL     1      -1.292   6.331  -1.851  1.00  0.00     0.113 C 
ATOM      6  C   UNL     1      -2.606   6.651  -2.489  1.00  0.00     0.035 C 
ATOM      7  C   UNL     1      -1.496   6.059  -3.308  1.00  0.00    -0.014 C 
ATOM      8  C   UNL     1      -0.843   6.941  -4.318  1.00  0.00     0.012 C 
ATOM      9  C   UNL     1      -1.567   4.630  -3.730  1.00  0.00     0.012 C 
BRANCH   6  10
ATOM     10  C   UNL     1      -2.973   8.051  -2.647  1.00  0.00     0.011 C 
ATOM     11  Cl  UNL     1      -5.620   7.574  -2.799  1.00  0.00    -0.071 Cl
ATOM     12  C   UNL     1      -4.205   8.564  -2.786  1.00  0.00     0.103 C 
ATOM     13  Cl  UNL     1      -4.427  10.269  -2.965  1.00  0.00    -0.071 Cl
ENDBRANCH   6  10
ENDBRANCH   3   5
ENDBRANCH   2   3
ENDBRANCH   1   2
BRANCH   1  14
ATOM     14  C   UNL     1      -3.762   3.381  -0.991  1.00  0.00    -0.007 A 
ATOM     15  C   UNL     1      -4.891   4.145  -1.285  1.00  0.00     0.054 A 
ATOM     16  C   UNL     1      -3.487   2.229  -1.727  1.00  0.00     0.007 A 
ATOM     17  C   UNL     1      -5.746   3.755  -2.316  1.00  0.00     0.127 A 
ATOM     18  C   UNL     1      -4.343   1.839  -2.757  1.00  0.00     0.004 A 
ATOM     19  C   UNL     1      -5.472   2.603  -3.051  1.00  0.00     0.047 A 
BRANCH  17  20
ATOM     20  O   UNL     1      -6.849   4.500  -2.603  1.00  0.00    -0.457 OA
BRANCH  20  21
ATOM     21  C   UNL     1      -7.847   4.569  -1.647  1.00  0.00     0.127 A 
ATOM     22  C   UNL     1      -8.128   5.788  -1.053  1.00  0.00     0.047 A 
ATOM     23  C   UNL     1      -8.538   3.421  -1.309  1.00  0.00     0.047 A 
ATOM     24  C   UNL     1      -9.133   5.857  -0.090  1.00  0.00     0.004 A 
ATOM     25  C   UNL     1      -9.545   3.491  -0.345  1.00  0.00     0.004 A 
ATOM     26  C   UNL     1      -9.842   4.710   0.264  1.00  0.00     0.000 A 
ENDBRANCH  20  21
ENDBRANCH  17  20
ENDBRANCH   1  14
TORSDOF 7
ENDMDL
MODEL 3
REMARK VINA RESULT:    -6.246      2.503      4.995
REMARK INTER + INTRA:         -11.973
REMARK INTER:                  -9.804
REMARK INTRA:                  -2.170
REMARK UNBOUND:                -3.171
REMARK SMILES CC1(C)[C@H](C=C(Cl)Cl)[C@H]1C(=O)OCc1cccc(Oc2ccccc2)c1
REMARK SMILES IDX 13 1 12 2 10 3 11 4 9 5 4 6 2 7 1 8 3 9 5 10 7 11 6 12 8 13
REMARK SMILES IDX 14 14 26 15 15 16 18 17 16 18 17 19 19 20 20 21 21 22 25 23
REMARK SMILES IDX 22 24 24 25 23 26
REMARK H PARENT
REMARK Flexibility Score: inf
ROOT
ATOM      1  C   UNL     1       1.235   3.780  -2.361  1.00  0.00     0.268 C 
ENDROOT
BRANCH   1   2
ATOM      2  O   UNL     1       0.274   4.800  -2.603  1.00  0.00    -0.461 OA
BRANCH   2   3
ATOM      3  C   UNL     1       0.093   5.698  -1.592  1.00  0.00     0.310 C 
ATOM      4  O   UNL     1       0.948   6.106  -0.818  1.00  0.00    -0.252 OA
BRANCH   3   5
ATOM      5  C   UNL     1      -1.315   6.162  -1.510  1.00  0.00     0.113 C 
ATOM      6  C   UNL     1      -2.203   5.947  -2.694  1.00  0.00     0.035 C 
ATOM      7  C   UNL     1      -1.765   7.334  -2.323  1.00  0.00    -0.014 C 
ATOM      8  C   UNL     1      -2.801   8.256  -1.772  1.00  0.00     0.012 C 
ATOM      9  C   UNL     1      -0.732   8.030  -3.143  1.00  0.00     0.012 C 
BRANCH   6  10
ATOM     10  C   UNL     1      -3.574   5.519  -2.459  1.00  0.00     0.011 C 
ATOM     11  Cl  UNL     1      -2.888   3.144  -1.387  1.00  0.00    -0.071 Cl
ATOM     12  C   UNL     1      -3.990   4.364  -1.917  1.00  0.00     0.103 C 
ATOM     13  Cl  UNL     1      -5.678   4.045  -1.726  1.00  0.00    -0.071 Cl
ENDBRANCH   6  10
ENDBRANCH   3   5
ENDBRANCH   2   3
ENDBRANCH   1   2
BRANCH   1  14
ATOM     14  C   UNL     1       0.542   2.466  -2.227  1.00  0.00    -0.007 A 
ATOM     15  C   UNL     1      -0.098   1.900  -3.330  1.00  0.00     0.054 A 
ATOM     16  C   UNL     1       0.535   1.803  -1.000  1.00  0.00     0.007 A 
ATOM     17  C   UNL     1      -0.745   0.671  -3.205  1.00  0.00     0.127 A 
ATOM     18  C   UNL     1      -0.113   0.575  -0.875  1.00  0.00     0.004 A 
ATOM     19  C   UNL     1      -0.753   0.009  -1.978  1.00  0.00     0.047 A 
BRANCH  17  20
ATOM     20  O   UNL     1      -1.370   0.118  -4.281  1.00  0.00    -0.457 OA
BRANCH  20  21
ATOM     21  C   UNL     1      -2.749   0.213  -4.344  1.00  0.00     0.127 A 
ATOM     22  C   UNL     1      -3.332   1.462  -4.477  1.00  0.00     0.047 A 
ATOM     23  C   UNL     1      -3.509  -0.939  -4.274  1.00  0.00     0.047 A 
ATOM     24  C   UNL     1      -4.722   1.558  -4.541  1.00  0.00     0.004 A 
ATOM     25  C   UNL     1      -4.900  -0.842  -4.338  1.00  0.00     0.004 A 
ATOM     26  C   UNL     1      -5.506   0.407  -4.472  1.00  0.00     0.000 A 
ENDBRANCH  20  21
ENDBRANCH  17  20
ENDBRANCH   1  14
TORSDOF 7
ENDMDL
MODEL 4
REMARK VINA RESULT:    -6.235      2.371      4.648
REMARK INTER + INTRA:         -11.957
REMARK INTER:                  -9.813
REMARK INTRA:                  -2.145
REMARK UNBOUND:                -3.171
REMARK SMILES CC1(C)[C@H](C=C(Cl)Cl)[C@H]1C(=O)OCc1cccc(Oc2ccccc2)c1
REMARK SMILES IDX 13 1 12 2 10 3 11 4 9 5 4 6 2 7 1 8 3 9 5 10 7 11 6 12 8 13
REMARK SMILES IDX 14 14 26 15 15 16 18 17 16 18 17 19 19 20 20 21 21 22 25 23
REMARK SMILES IDX 22 24 24 25 23 26
REMARK H PARENT
REMARK Flexibility Score: inf
ROOT
ATOM      1  C   UNL     1      -4.564   1.825  -3.983  1.00  0.00     0.268 C 
ENDROOT
BRANCH   1   2
ATOM      2  O   UNL     1      -3.152   1.879  -3.823  1.00  0.00    -0.461 OA
BRANCH   2   3
ATOM      3  C   UNL     1      -2.669   1.397  -2.641  1.00  0.00     0.310 C 
ATOM      4  O   UNL     1      -3.057   0.400  -2.048  1.00  0.00    -0.252 OA
BRANCH   3   5
ATOM      5  C   UNL     1      -1.567   2.238  -2.109  1.00  0.00     0.113 C 
ATOM      6  C   UNL     1      -1.061   1.955  -0.730  1.00  0.00     0.035 C 
ATOM      7  C   UNL     1      -1.834   3.212  -1.006  1.00  0.00    -0.014 C 
ATOM      8  C   UNL     1      -1.084   4.501  -0.967  1.00  0.00     0.012 C 
ATOM      9  C   UNL     1      -3.243   3.335  -0.533  1.00  0.00     0.012 C 
BRANCH   6  10
ATOM     10  C   UNL     1       0.375   2.009  -0.498  1.00  0.00     0.011 C 
ATOM     11  Cl  UNL     1       0.514  -0.439   0.620  1.00  0.00    -0.071 Cl
ATOM     12  C   UNL     1       1.150   1.066   0.061  1.00  0.00     0.103 C 
ATOM     13  Cl  UNL     1       2.848   1.329   0.249  1.00  0.00    -0.071 Cl
ENDBRANCH   6  10
ENDBRANCH   3   5
ENDBRANCH   2   3
ENDBRANCH   1   2
BRANCH   1  14
ATOM     14  C   UNL     1      -5.171   3.084  -3.464  1.00  0.00    -0.007 A 
ATOM     15  C   UNL     1      -4.689   4.320  -3.896  1.00  0.00     0.054 A 
ATOM     16  C   UNL     1      -6.221   3.026  -2.548  1.00  0.00     0.007 A 
ATOM     17  C   UNL     1      -5.258   5.498  -3.411  1.00  0.00     0.127 A 
ATOM     18  C   UNL     1      -6.789   4.204  -2.062  1.00  0.00     0.004 A 
ATOM     19  C   UNL     1      -6.307   5.440  -2.494  1.00  0.00     0.047 A 
BRANCH  17  20
ATOM     20  O   UNL     1      -4.788   6.704  -3.832  1.00  0.00    -0.457 OA
BRANCH  20  21
ATOM     21  C   UNL     1      -3.563   7.125  -3.342  1.00  0.00     0.127 A 
ATOM     22  C   UNL     1      -2.455   7.078  -4.170  1.00  0.00     0.047 A 
ATOM     23  C   UNL     1      -3.479   7.582  -2.040  1.00  0.00     0.047 A 
ATOM     24  C   UNL     1      -1.222   7.502  -3.677  1.00  0.00     0.004 A 
ATOM     25  C   UNL     1      -2.244   8.006  -1.548  1.00  0.00     0.004 A 
ATOM     26  C   UNL     1      -1.116   7.967  -2.367  1.00  0.00     0.000 A 
ENDBRANCH  20  21
ENDBRANCH  17  20
ENDBRANCH   1  14
TORSDOF 7
ENDMDL
MODEL 5
REMARK VINA RESULT:    -6.188      2.813      5.976
REMARK INTER + INTRA:         -11.892
REMARK INTER:                  -8.927
REMARK INTRA:                  -2.965
REMARK UNBOUND:                -3.171
REMARK SMILES CC1(C)[C@H](C=C(Cl)Cl)[C@H]1C(=O)OCc1cccc(Oc2ccccc2)c1
REMARK SMILES IDX 13 1 12 2 10 3 11 4 9 5 4 6 2 7 1 8 3 9 5 10 7 11 6 12 8 13
REMARK SMILES IDX 14 14 26 15 15 16 18 17 16 18 17 19 19 20 20 21 21 22 25 23
REMARK SMILES IDX 22 24 24 25 23 26
REMARK H PARENT
REMARK Flexibility Score: inf
ROOT
ATOM      1  C   UNL     1      -5.168   2.964  -4.663  1.00  0.00     0.268 C 
ENDROOT
BRANCH   1   2
ATOM      2  O   UNL     1      -4.430   3.966  -3.974  1.00  0.00    -0.461 OA
BRANCH   2   3
ATOM      3  C   UNL     1      -4.907   4.315  -2.744  1.00  0.00     0.310 C 
ATOM      4  O   UNL     1      -6.055   4.183  -2.344  1.00  0.00    -0.252 OA
BRANCH   3   5
ATOM      5  C   UNL     1      -3.848   4.903  -1.886  1.00  0.00     0.113 C 
ATOM      6  C   UNL     1      -2.420   4.598  -2.213  1.00  0.00     0.035 C 
ATOM      7  C   UNL     1      -3.048   4.026  -0.976  1.00  0.00    -0.014 C 
ATOM      8  C   UNL     1      -2.586   4.559   0.339  1.00  0.00     0.012 C 
ATOM      9  C   UNL     1      -3.414   2.580  -0.930  1.00  0.00     0.012 C 
BRANCH   6  10
ATOM     10  C   UNL     1      -1.445   5.674  -2.114  1.00  0.00     0.011 C 
ATOM     11  Cl  UNL     1      -2.093   6.783  -4.482  1.00  0.00    -0.071 Cl
ATOM     12  C   UNL     1      -1.213   6.653  -3.003  1.00  0.00     0.103 C 
ATOM     13  Cl  UNL     1       0.003   7.843  -2.695  1.00  0.00    -0.071 Cl
ENDBRANCH   6  10
ENDBRANCH   3   5
ENDBRANCH   2   3
ENDBRANCH   1   2
BRANCH   1  14
ATOM     14  C   UNL     1      -4.489   1.647  -4.500  1.00  0.00    -0.007 A 
ATOM     15  C   UNL     1      -3.103   1.589  -4.355  1.00  0.00     0.054 A 
ATOM     16  C   UNL     1      -5.241   0.472  -4.490  1.00  0.00     0.007 A 
ATOM     17  C   UNL     1      -2.469   0.356  -4.202  1.00  0.00     0.127 A 
ATOM     18  C   UNL     1      -4.607  -0.761  -4.338  1.00  0.00     0.004 A 
ATOM     19  C   UNL     1      -3.221  -0.818  -4.193  1.00  0.00     0.047 A 
BRANCH  17  20
ATOM     20  O   UNL     1      -1.116   0.300  -4.061  1.00  0.00    -0.457 OA
BRANCH  20  21
ATOM     21  C   UNL     1      -0.568   0.808  -2.896  1.00  0.00     0.127 A 
ATOM     22  C   UNL     1      -0.698   0.087  -1.721  1.00  0.00     0.047 A 
ATOM     23  C   UNL     1       0.094   2.021  -2.935  1.00  0.00     0.047 A 
ATOM     24  C   UNL     1      -0.146   0.599  -0.547  1.00  0.00     0.004 A 
ATOM     25  C   UNL     1       0.647   2.532  -1.759  1.00  0.00     0.004 A 
ATOM     26  C   UNL     1       0.527   1.820  -0.566  1.00  0.00     0.000 A 
ENDBRANCH  20  21
ENDBRANCH  17  20
ENDBRANCH   1  14
TORSDOF 7
ENDMDL
