MODEL 1
REMARK VINA RESULT:    -6.539      0.000      0.000
REMARK INTER + INTRA:         -12.361
REMARK INTER:                  -9.215
REMARK INTRA:                  -3.146
REMARK UNBOUND:                -3.146
REMARK SMILES CC1(C)[C@H](C=C(Cl)Cl)[C@H]1C(=O)OCc1cccc(Oc2ccccc2)c1
REMARK SMILES IDX 13 1 12 2 10 3 11 4 9 5 4 6 2 7 1 8 3 9 5 10 7 11 6 12 8 13
REMARK SMILES IDX 14 14 26 15 15 16 18 17 16 18 17 19 19 20 20 21 21 22 25 23
REMARK SMILES IDX 22 24 24 25 23 26
REMARK H PARENT
REMARK Flexibility Score: inf
ROOT
ATOM      1  C   UNL     1      -0.589   6.960  -3.176  1.00  0.00     0.268 C 
ENDROOT
BRANCH   1   2
ATOM      2  O   UNL     1      -0.353   5.577  -2.943  1.00  0.00    -0.461 OA
BRANCH   2   3
ATOM      3  C   UNL     1       0.022   5.244  -1.674  1.00  0.00     0.310 C 
ATOM      4  O   UNL     1       0.706   5.916  -0.915  1.00  0.00    -0.252 OA
BRANCH   3   5
ATOM      5  C   UNL     1      -0.508   3.916  -1.272  1.00  0.00     0.113 C 
ATOM      6  C   UNL     1      -1.671   3.358  -2.029  1.00  0.00     0.035 C 
ATOM      7  C   UNL     1      -1.846   3.813  -0.610  1.00  0.00    -0.014 C 
ATOM      8  C   UNL     1      -2.074   2.762   0.425  1.00  0.00     0.012 C 
ATOM      9  C   UNL     1      -2.563   5.089  -0.323  1.00  0.00     0.012 C 
BRANCH   6  10
ATOM     10  C   UNL     1      -1.666   1.938  -2.353  1.00  0.00     0.011 C 
ATOM     11  Cl  UNL     1       0.010   2.192  -4.447  1.00  0.00    -0.071 Cl
ATOM     12  C   UNL     1      -0.999   1.327  -3.345  1.00  0.00     0.103 C 
ATOM     13  Cl  UNL     1      -1.130  -0.383  -3.562  1.00  0.00    -0.071 Cl
ENDBRANCH   6  10
ENDBRANCH   3   5
ENDBRANCH   2   3
ENDBRANCH   1   2
BRANCH   1  14
ATOM     14  C   UNL     1      -2.047   7.244  -3.043  1.00  0.00    -0.007 A 
ATOM     15  C   UNL     1      -2.980   6.391  -3.633  1.00  0.00     0.054 A 
ATOM     16  C   UNL     1      -2.477   8.361  -2.326  1.00  0.00     0.007 A 
ATOM     17  C   UNL     1      -4.343   6.657  -3.508  1.00  0.00     0.127 A 
ATOM     18  C   UNL     1      -3.840   8.626  -2.202  1.00  0.00     0.004 A 
ATOM     19  C   UNL     1      -4.773   7.774  -2.793  1.00  0.00     0.047 A 
BRANCH  17  20
ATOM     20  O   UNL     1      -5.254   5.826  -4.085  1.00  0.00    -0.457 OA
BRANCH  20  21
ATOM     21  C   UNL     1      -5.233   4.492  -3.716  1.00  0.00     0.127 A 
ATOM     22  C   UNL     1      -4.902   3.537  -4.663  1.00  0.00     0.047 A 
ATOM     23  C   UNL     1      -5.541   4.146  -2.414  1.00  0.00     0.047 A 
ATOM     24  C   UNL     1      -4.880   2.194  -4.293  1.00  0.00     0.004 A 
ATOM     25  C   UNL     1      -5.519   2.801  -2.044  1.00  0.00     0.004 A 
ATOM     26  C   UNL     1      -5.188   1.825  -2.983  1.00  0.00     0.000 A 
ENDBRANCH  20  21
ENDBRANCH  17  20
ENDBRANCH   1  14
TORSDOF 7
ENDMDL
MODEL 2
REMARK VINA RESULT:    -6.280      2.536      4.992
REMARK INTER + INTRA:         -11.996
REMARK INTER:                  -9.803
REMARK INTRA:                  -2.192
REMARK UNBOUND:                -3.146
REMARK SMILES CC1(C)[C@H](C=C(Cl)Cl)[C@H]1C(=O)OCc1cccc(Oc2ccccc2)c1
REMARK SMILES IDX 13 1 12 2 10 3 11 4 9 5 4 6 2 7 1 8 3 9 5 10 7 11 6 12 8 13
REMARK SMILES IDX 14 14 26 15 15 16 18 17 16 18 17 19 19 20 20 21 21 22 25 23
REMARK SMILES IDX 22 24 24 25 23 26
REMARK H PARENT
REMARK Flexibility Score: inf
ROOT
ATOM      1  C   UNL     1       1.253   3.766  -2.315  1.00  0.00     0.268 C 
ENDROOT
BRANCH   1   2
ATOM      2  O   UNL     1       0.304   4.791  -2.581  1.00  0.00    -0.461 OA
BRANCH   2   3
ATOM      3  C   UNL     1       0.105   5.692  -1.575  1.00  0.00     0.310 C 
ATOM      4  O   UNL     1       0.951   6.121  -0.803  1.00  0.00    -0.252 OA
BRANCH   3   5
ATOM      5  C   UNL     1      -1.311   6.132  -1.498  1.00  0.00     0.113 C 
ATOM      6  C   UNL     1      -2.188   5.908  -2.689  1.00  0.00     0.035 C 
ATOM      7  C   UNL     1      -1.777   7.300  -2.308  1.00  0.00    -0.014 C 
ATOM      8  C   UNL     1      -2.832   8.200  -1.758  1.00  0.00     0.012 C 
ATOM      9  C   UNL     1      -0.752   8.018  -3.119  1.00  0.00     0.012 C 
BRANCH   6  10
ATOM     10  C   UNL     1      -3.553   5.454  -2.463  1.00  0.00     0.011 C 
ATOM     11  Cl  UNL     1      -2.831   3.136  -1.296  1.00  0.00    -0.071 Cl
ATOM     12  C   UNL     1      -3.951   4.309  -1.888  1.00  0.00     0.103 C 
ATOM     13  Cl  UNL     1      -5.635   3.955  -1.717  1.00  0.00    -0.071 Cl
ENDBRANCH   6  10
ENDBRANCH   3   5
ENDBRANCH   2   3
ENDBRANCH   1   2
BRANCH   1  14
ATOM     14  C   UNL     1       0.550   2.456  -2.199  1.00  0.00    -0.007 A 
ATOM     15  C   UNL     1      -0.092   1.909  -3.310  1.00  0.00     0.054 A 
ATOM     16  C   UNL     1       0.536   1.778  -0.980  1.00  0.00     0.007 A 
ATOM     17  C   UNL     1      -0.749   0.684  -3.201  1.00  0.00     0.127 A 
ATOM     18  C   UNL     1      -0.122   0.553  -0.872  1.00  0.00     0.004 A 
ATOM     19  C   UNL     1      -0.764   0.006  -1.982  1.00  0.00     0.047 A 
BRANCH  17  20
ATOM     20  O   UNL     1      -1.376   0.149  -4.285  1.00  0.00    -0.457 OA
BRANCH  20  21
ATOM     21  C   UNL     1      -2.759   0.199  -4.319  1.00  0.00     0.127 A 
ATOM     22  C   UNL     1      -3.477  -0.984  -4.279  1.00  0.00     0.047 A 
ATOM     23  C   UNL     1      -3.388   1.428  -4.391  1.00  0.00     0.047 A 
ATOM     24  C   UNL     1      -4.870  -0.934  -4.314  1.00  0.00     0.004 A 
ATOM     25  C   UNL     1      -4.782   1.477  -4.425  1.00  0.00     0.004 A 
ATOM     26  C   UNL     1      -5.523   0.296  -4.386  1.00  0.00     0.000 A 
ENDBRANCH  20  21
ENDBRANCH  17  20
ENDBRANCH   1  14
TORSDOF 7
ENDMDL
MODEL 3
REMARK VINA RESULT:    -6.205      2.665      5.902
REMARK INTER + INTRA:         -11.891
REMARK INTER:                  -8.796
REMARK INTRA:                  -3.095
REMARK UNBOUND:                -3.146
REMARK SMILES CC1(C)[C@H](C=C(Cl)Cl)[C@H]1C(=O)OCc1cccc(Oc2ccccc2)c1
REMARK SMILES IDX 13 1 12 2 10 3 11 4 9 5 4 6 2 7 1 8 3 9 5 10 7 11 6 12 8 13
REMARK SMILES IDX 14 14 26 15 15 16 18 17 16 18 17 19 19 20 20 21 21 22 25 23
REMARK SMILES IDX 22 24 24 25 23 26
REMARK H PARENT
REMARK Flexibility Score: inf
ROOT
ATOM      1  C   UNL     1      -5.212   2.897  -4.663  1.00  0.00     0.268 C 
ENDROOT
BRANCH   1   2
ATOM      2  O   UNL     1      -4.554   3.918  -3.923  1.00  0.00    -0.461 OA
BRANCH   2   3
ATOM      3  C   UNL     1      -5.065   4.176  -2.684  1.00  0.00     0.310 C 
ATOM      4  O   UNL     1      -6.206   3.952  -2.305  1.00  0.00    -0.252 OA
BRANCH   3   5
ATOM      5  C   UNL     1      -4.054   4.787  -1.785  1.00  0.00     0.113 C 
ATOM      6  C   UNL     1      -2.607   4.614  -2.124  1.00  0.00     0.035 C 
ATOM      7  C   UNL     1      -3.190   3.917  -0.929  1.00  0.00    -0.014 C 
ATOM      8  C   UNL     1      -2.769   4.399   0.419  1.00  0.00     0.012 C 
ATOM      9  C   UNL     1      -3.443   2.448  -0.978  1.00  0.00     0.012 C 
BRANCH   6  10
ATOM     10  C   UNL     1      -1.718   5.754  -1.951  1.00  0.00     0.011 C 
ATOM     11  Cl  UNL     1      -0.588   5.528  -4.387  1.00  0.00    -0.071 Cl
ATOM     12  C   UNL     1      -0.825   6.236  -2.830  1.00  0.00     0.103 C 
ATOM     13  Cl  UNL     1       0.145   7.609  -2.426  1.00  0.00    -0.071 Cl
ENDBRANCH   6  10
ENDBRANCH   3   5
ENDBRANCH   2   3
ENDBRANCH   1   2
BRANCH   1  14
ATOM     14  C   UNL     1      -4.449   1.622  -4.536  1.00  0.00    -0.007 A 
ATOM     15  C   UNL     1      -3.064   1.652  -4.369  1.00  0.00     0.054 A 
ATOM     16  C   UNL     1      -5.120   0.400  -4.583  1.00  0.00     0.007 A 
ATOM     17  C   UNL     1      -2.352   0.459  -4.250  1.00  0.00     0.127 A 
ATOM     18  C   UNL     1      -4.407  -0.792  -4.465  1.00  0.00     0.004 A 
ATOM     19  C   UNL     1      -3.023  -0.762  -4.298  1.00  0.00     0.047 A 
BRANCH  17  20
ATOM     20  O   UNL     1      -1.000   0.487  -4.088  1.00  0.00    -0.457 OA
BRANCH  20  21
ATOM     21  C   UNL     1      -0.505   0.991  -2.897  1.00  0.00     0.127 A 
ATOM     22  C   UNL     1       0.095   2.238  -2.891  1.00  0.00     0.047 A 
ATOM     23  C   UNL     1      -0.621   0.236  -1.745  1.00  0.00     0.047 A 
ATOM     24  C   UNL     1       0.594   2.746  -1.693  1.00  0.00     0.004 A 
ATOM     25  C   UNL     1      -0.122   0.744  -0.545  1.00  0.00     0.004 A 
ATOM     26  C   UNL     1       0.485   2.000  -0.520  1.00  0.00     0.000 A 
ENDBRANCH  20  21
ENDBRANCH  17  20
ENDBRANCH   1  14
TORSDOF 7
ENDMDL
MODEL 4
REMARK VINA RESULT:    -6.183      2.386      4.571
REMARK INTER + INTRA:         -11.859
REMARK INTER:                  -9.754
REMARK INTRA:                  -2.105
REMARK UNBOUND:                -3.146
REMARK SMILES CC1(C)[C@H](C=C(Cl)Cl)[C@H]1C(=O)OCc1cccc(Oc2ccccc2)c1
REMARK SMILES IDX 13 1 12 2 10 3 11 4 9 5 4 6 2 7 1 8 3 9 5 10 7 11 6 12 8 13
REMARK SMILES IDX 14 14 26 15 15 16 18 17 16 18 17 19 19 20 20 21 21 22 25 23
REMARK SMILES IDX 22 24 24 25 23 26
REMARK H PARENT
REMARK Flexibility Score: inf
ROOT
ATOM      1  C   UNL     1      -4.742   1.771  -3.755  1.00  0.00     0.268 C 
ENDROOT
BRANCH   1   2
ATOM      2  O   UNL     1      -3.325   1.836  -3.851  1.00  0.00    -0.461 OA
BRANCH   2   3
ATOM      3  C   UNL     1      -2.633   1.252  -2.830  1.00  0.00     0.310 C 
ATOM      4  O   UNL     1      -2.818   0.133  -2.371  1.00  0.00    -0.252 OA
BRANCH   3   5
ATOM      5  C   UNL     1      -1.574   2.145  -2.297  1.00  0.00     0.113 C 
ATOM      6  C   UNL     1      -0.924   1.780  -1.000  1.00  0.00     0.035 C 
ATOM      7  C   UNL     1      -1.834   2.970  -1.077  1.00  0.00    -0.014 C 
ATOM      8  C   UNL     1      -1.210   4.320  -0.956  1.00  0.00     0.012 C 
ATOM      9  C   UNL     1      -3.202   2.898  -0.486  1.00  0.00     0.012 C 
BRANCH   6  10
ATOM     10  C   UNL     1       0.515   1.959  -0.876  1.00  0.00     0.011 C 
ATOM     11  Cl  UNL     1       0.858  -0.126   0.796  1.00  0.00    -0.071 Cl
ATOM     12  C   UNL     1       1.372   1.223  -0.151  1.00  0.00     0.103 C 
ATOM     13  Cl  UNL     1       3.058   1.607  -0.137  1.00  0.00    -0.071 Cl
ENDBRANCH   6  10
ENDBRANCH   3   5
ENDBRANCH   2   3
ENDBRANCH   1   2
BRANCH   1  14
ATOM     14  C   UNL     1      -5.272   3.099  -3.329  1.00  0.00    -0.007 A 
ATOM     15  C   UNL     1      -4.702   4.270  -3.829  1.00  0.00     0.054 A 
ATOM     16  C   UNL     1      -6.338   3.169  -2.432  1.00  0.00     0.007 A 
ATOM     17  C   UNL     1      -5.198   5.511  -3.430  1.00  0.00     0.127 A 
ATOM     18  C   UNL     1      -6.833   4.410  -2.033  1.00  0.00     0.004 A 
ATOM     19  C   UNL     1      -6.263   5.581  -2.533  1.00  0.00     0.047 A 
BRANCH  17  20
ATOM     20  O   UNL     1      -4.642   6.654  -3.918  1.00  0.00    -0.457 OA
BRANCH  20  21
ATOM     21  C   UNL     1      -3.418   7.046  -3.403  1.00  0.00     0.127 A 
ATOM     22  C   UNL     1      -2.282   6.890  -4.178  1.00  0.00     0.047 A 
ATOM     23  C   UNL     1      -3.362   7.582  -2.130  1.00  0.00     0.047 A 
ATOM     24  C   UNL     1      -1.049   7.284  -3.660  1.00  0.00     0.004 A 
ATOM     25  C   UNL     1      -2.128   7.976  -1.613  1.00  0.00     0.004 A 
ATOM     26  C   UNL     1      -0.971   7.828  -2.378  1.00  0.00     0.000 A 
ENDBRANCH  20  21
ENDBRANCH  17  20
ENDBRANCH   1  14
TORSDOF 7
ENDMDL
MODEL 5
REMARK VINA RESULT:    -6.156      2.951      5.387
REMARK INTER + INTRA:         -11.822
REMARK INTER:                 -10.154
REMARK INTRA:                  -1.668
REMARK UNBOUND:                -3.146
REMARK SMILES CC1(C)[C@H](C=C(Cl)Cl)[C@H]1C(=O)OCc1cccc(Oc2ccccc2)c1
REMARK SMILES IDX 13 1 12 2 10 3 11 4 9 5 4 6 2 7 1 8 3 9 5 10 7 11 6 12 8 13
REMARK SMILES IDX 14 14 26 15 15 16 18 17 16 18 17 19 19 20 20 21 21 22 25 23
REMARK SMILES IDX 22 24 24 25 23 26
REMARK H PARENT
REMARK Flexibility Score: inf
ROOT
ATOM      1  C   UNL     1       1.369   3.649  -2.269  1.00  0.00     0.268 C 
ENDROOT
BRANCH   1   2
ATOM      2  O   UNL     1       0.514   4.662  -2.785  1.00  0.00    -0.461 OA
BRANCH   2   3
ATOM      3  C   UNL     1      -0.040   5.499  -1.861  1.00  0.00     0.310 C 
ATOM      4  O   UNL     1       0.528   6.007  -0.905  1.00  0.00    -0.252 OA
BRANCH   3   5
ATOM      5  C   UNL     1      -1.476   5.754  -2.137  1.00  0.00     0.113 C 
ATOM      6  C   UNL     1      -2.265   6.530  -1.130  1.00  0.00     0.035 C 
ATOM      7  C   UNL     1      -2.528   5.066  -1.326  1.00  0.00    -0.014 C 
ATOM      8  C   UNL     1      -3.818   4.681  -1.970  1.00  0.00     0.012 C 
ATOM      9  C   UNL     1      -2.065   4.085  -0.302  1.00  0.00     0.012 C 
BRANCH   6  10
ATOM     10  C   UNL     1      -3.215   7.521  -1.614  1.00  0.00     0.011 C 
ATOM     11  Cl  UNL     1      -1.525   8.589  -3.421  1.00  0.00    -0.071 Cl
ATOM     12  C   UNL     1      -3.022   8.441  -2.572  1.00  0.00     0.103 C 
ATOM     13  Cl  UNL     1      -4.289   9.537  -3.001  1.00  0.00    -0.071 Cl
ENDBRANCH   6  10
ENDBRANCH   3   5
ENDBRANCH   2   3
ENDBRANCH   1   2
BRANCH   1  14
ATOM     14  C   UNL     1       0.615   2.366  -2.169  1.00  0.00    -0.007 A 
ATOM     15  C   UNL     1      -0.043   1.855  -3.288  1.00  0.00     0.054 A 
ATOM     16  C   UNL     1       0.569   1.677  -0.957  1.00  0.00     0.007 A 
ATOM     17  C   UNL     1      -0.747   0.655  -3.194  1.00  0.00     0.127 A 
ATOM     18  C   UNL     1      -0.136   0.478  -0.864  1.00  0.00     0.004 A 
ATOM     19  C   UNL     1      -0.794  -0.033  -1.983  1.00  0.00     0.047 A 
BRANCH  17  20
ATOM     20  O   UNL     1      -1.389   0.156  -4.286  1.00  0.00    -0.457 OA
BRANCH  20  21
ATOM     21  C   UNL     1      -2.772   0.220  -4.305  1.00  0.00     0.127 A 
ATOM     22  C   UNL     1      -3.390   1.455  -4.208  1.00  0.00     0.047 A 
ATOM     23  C   UNL     1      -3.500  -0.950  -4.421  1.00  0.00     0.047 A 
ATOM     24  C   UNL     1      -4.783   1.519  -4.227  1.00  0.00     0.004 A 
ATOM     25  C   UNL     1      -4.894  -0.884  -4.441  1.00  0.00     0.004 A 
ATOM     26  C   UNL     1      -5.535   0.351  -4.344  1.00  0.00     0.000 A 
ENDBRANCH  20  21
ENDBRANCH  17  20
ENDBRANCH   1  14
TORSDOF 7
ENDMDL
