MODEL 1
REMARK VINA RESULT:    -7.049      0.000      0.000
REMARK INTER + INTRA:         -11.443
REMARK INTER:                 -10.346
REMARK INTRA:                  -1.097
REMARK UNBOUND:                -1.097
REMARK SMILES CC1(C)C(C=C(Br)Br)C1C(=O)OC(C#N)c1cccc(Oc2ccccc2)c1
REMARK SMILES IDX 13 1 12 2 10 3 11 4 9 5 4 6 2 7 1 8 3 9 5 10 7 11 6 12 8 13
REMARK SMILES IDX 16 14 28 15 17 16 20 17 18 18 19 19 21 20 22 21 23 22 27 23
REMARK SMILES IDX 24 24 26 25 25 26 14 27 15 28
REMARK H PARENT
REMARK Flexibility Score: inf
ROOT
ATOM      1  C   UNL     1      -4.346   1.637  -2.442  1.00  0.00     0.309 C
ENDROOT
BRANCH   1   2
ATOM      2  O   UNL     1      -2.987   1.738  -2.888  1.00  0.00    -0.442 OA
BRANCH   2   3
ATOM      3  C   UNL     1      -2.068   1.126  -2.095  1.00  0.00     0.311 C
ATOM      4  O   UNL     1      -1.419   0.123  -2.357  1.00  0.00    -0.252 OA
BRANCH   3   5
ATOM      5  C   UNL     1      -1.915   1.834  -0.797  1.00  0.00     0.113 C
ATOM      6  C   UNL     1      -0.972   2.991  -0.727  1.00  0.00     0.035 C
ATOM      7  C   UNL     1      -0.643   1.709  -0.022  1.00  0.00    -0.014 C
ATOM      8  C   UNL     1       0.477   0.892  -0.575  1.00  0.00     0.012 C
ATOM      9  C   UNL     1      -0.760   1.630   1.464  1.00  0.00     0.012 C
BRANCH   6  10
ATOM     10  C   UNL     1      -0.257   3.375  -1.935  1.00  0.00     0.001 C
ATOM     11  Br  UNL     1      -1.054   6.101  -1.814  1.00  0.00    -0.043 Br
ATOM     12  C   UNL     1      -0.192   4.590  -2.505  1.00  0.00     0.057 C
ATOM     13  Br  UNL     1       0.795   4.871  -4.075  1.00  0.00    -0.043 Br
ENDBRANCH   6  10
ENDBRANCH   3   5
ENDBRANCH   2   3
ENDBRANCH   1   2
BRANCH   1  14
ATOM     14  C   UNL     1      -4.996   2.978  -2.482  1.00  0.00     0.011 A
ATOM     15  C   UNL     1      -6.385   3.083  -2.410  1.00  0.00     0.055 A
ATOM     16  C   UNL     1      -4.214   4.128  -2.589  1.00  0.00     0.009 A
ATOM     17  C   UNL     1      -6.992   4.338  -2.447  1.00  0.00     0.127 A
ATOM     18  C   UNL     1      -4.822   5.383  -2.627  1.00  0.00     0.004 A
ATOM     19  C   UNL     1      -6.211   5.488  -2.556  1.00  0.00     0.047 A
BRANCH  17  20
ATOM     20  O   UNL     1      -8.348   4.442  -2.378  1.00  0.00    -0.457 OA
BRANCH  20  21
ATOM     21  C   UNL     1      -8.928   4.470  -1.120  1.00  0.00     0.127 A
ATOM     22  C   UNL     1      -8.781   5.599  -0.336  1.00  0.00     0.047 A
ATOM     23  C   UNL     1      -9.639   3.367  -0.681  1.00  0.00     0.047 A
ATOM     24  C   UNL     1      -9.364   5.628   0.931  1.00  0.00     0.004 A
ATOM     25  C   UNL     1     -10.221   3.395   0.585  1.00  0.00     0.004 A
ATOM     26  C   UNL     1     -10.086   4.526   1.392  1.00  0.00     0.000 A
ENDBRANCH  20  21
ENDBRANCH  17  20
ENDBRANCH   1  14
BRANCH   1  27
ATOM     27  C   UNL     1      -5.058   0.637  -3.263  1.00  0.00     0.113 C
ATOM     28  N   UNL     1      -5.607  -0.156  -3.908  1.00  0.00    -0.194 NA
ENDBRANCH   1  27
TORSDOF 8
ENDMDL
MODEL 2
REMARK VINA RESULT:    -7.020      2.011      4.051
REMARK INTER + INTRA:         -11.400
REMARK INTER:                  -9.871
REMARK INTRA:                  -1.529
REMARK UNBOUND:                -1.097
REMARK SMILES CC1(C)C(C=C(Br)Br)C1C(=O)OC(C#N)c1cccc(Oc2ccccc2)c1
REMARK SMILES IDX 13 1 12 2 10 3 11 4 9 5 4 6 2 7 1 8 3 9 5 10 7 11 6 12 8 13
REMARK SMILES IDX 16 14 28 15 17 16 20 17 18 18 19 19 21 20 22 21 23 22 27 23
REMARK SMILES IDX 24 24 26 25 25 26 14 27 15 28
REMARK H PARENT
REMARK Flexibility Score: inf
ROOT
ATOM      1  C   UNL     1      -4.470   1.229  -2.828  1.00  0.00     0.309 C
ENDROOT
BRANCH   1   2
ATOM      2  O   UNL     1      -3.120   1.376  -3.289  1.00  0.00    -0.442 OA
BRANCH   2   3
ATOM      3  C   UNL     1      -2.164   0.886  -2.454  1.00  0.00     0.311 C
ATOM      4  O   UNL     1      -1.440  -0.080  -2.649  1.00  0.00    -0.252 OA
BRANCH   3   5
ATOM      5  C   UNL     1      -2.077   1.685  -1.204  1.00  0.00     0.113 C
ATOM      6  C   UNL     1      -1.255   2.934  -1.217  1.00  0.00     0.035 C
ATOM      7  C   UNL     1      -0.794   1.737  -0.438  1.00  0.00    -0.014 C
ATOM      8  C   UNL     1       0.399   1.004  -0.954  1.00  0.00     0.012 C
ATOM      9  C   UNL     1      -0.894   1.739   1.051  1.00  0.00     0.012 C
BRANCH   6  10
ATOM     10  C   UNL     1      -0.589   3.312  -2.454  1.00  0.00     0.001 C
ATOM     11  Br  UNL     1       0.387   5.782  -1.440  1.00  0.00    -0.043 Br
ATOM     12  C   UNL     1       0.115   4.429  -2.705  1.00  0.00     0.057 C
ATOM     13  Br  UNL     1       0.899   4.722  -4.383  1.00  0.00    -0.043 Br
ENDBRANCH   6  10
ENDBRANCH   3   5
ENDBRANCH   2   3
ENDBRANCH   1   2
BRANCH   1  14
ATOM     14  C   UNL     1      -5.175   2.541  -2.894  1.00  0.00     0.011 A
ATOM     15  C   UNL     1      -4.686   3.556  -3.718  1.00  0.00     0.055 A
ATOM     16  C   UNL     1      -6.324   2.754  -2.133  1.00  0.00     0.009 A
ATOM     17  C   UNL     1      -5.346   4.782  -3.780  1.00  0.00     0.127 A
ATOM     18  C   UNL     1      -6.983   3.982  -2.194  1.00  0.00     0.004 A
ATOM     19  C   UNL     1      -6.495   4.996  -3.017  1.00  0.00     0.047 A
BRANCH  17  20
ATOM     20  O   UNL     1      -4.870   5.773  -4.583  1.00  0.00    -0.457 OA
BRANCH  20  21
ATOM     21  C   UNL     1      -3.938   6.645  -4.045  1.00  0.00     0.127 A
ATOM     22  C   UNL     1      -2.634   6.604  -4.504  1.00  0.00     0.047 A
ATOM     23  C   UNL     1      -4.335   7.534  -3.062  1.00  0.00     0.047 A
ATOM     24  C   UNL     1      -1.694   7.482  -3.962  1.00  0.00     0.004 A
ATOM     25  C   UNL     1      -3.396   8.410  -2.519  1.00  0.00     0.004 A
ATOM     26  C   UNL     1      -2.076   8.386  -2.970  1.00  0.00     0.000 A
ENDBRANCH  20  21
ENDBRANCH  17  20
ENDBRANCH   1  14
BRANCH   1  27
ATOM     27  C   UNL     1      -5.146   0.181  -3.620  1.00  0.00     0.113 C
ATOM     28  N   UNL     1      -5.670  -0.640  -4.250  1.00  0.00    -0.194 NA
ENDBRANCH   1  27
TORSDOF 8
ENDMDL
MODEL 3
REMARK VINA RESULT:    -6.968      3.339      5.548
REMARK INTER + INTRA:         -11.325
REMARK INTER:                  -9.974
REMARK INTRA:                  -1.351
REMARK UNBOUND:                -1.097
REMARK SMILES CC1(C)C(C=C(Br)Br)C1C(=O)OC(C#N)c1cccc(Oc2ccccc2)c1
REMARK SMILES IDX 13 1 12 2 10 3 11 4 9 5 4 6 2 7 1 8 3 9 5 10 7 11 6 12 8 13
REMARK SMILES IDX 16 14 28 15 17 16 20 17 18 18 19 19 21 20 22 21 23 22 27 23
REMARK SMILES IDX 24 24 26 25 25 26 14 27 15 28
REMARK H PARENT
REMARK Flexibility Score: inf
ROOT
ATOM      1  C   UNL     1      -0.422   2.260  -0.689  1.00  0.00     0.309 C
ENDROOT
BRANCH   1   2
ATOM      2  O   UNL     1       0.139   3.219  -1.596  1.00  0.00    -0.442 OA
BRANCH   2   3
ATOM      3  C   UNL     1      -0.317   4.492  -1.450  1.00  0.00     0.311 C
ATOM      4  O   UNL     1      -0.051   5.272  -0.546  1.00  0.00    -0.252 OA
BRANCH   3   5
ATOM      5  C   UNL     1      -1.228   4.872  -2.561  1.00  0.00     0.113 C
ATOM      6  C   UNL     1      -0.665   4.957  -3.942  1.00  0.00     0.035 C
ATOM      7  C   UNL     1      -1.086   6.205  -3.223  1.00  0.00    -0.014 C
ATOM      8  C   UNL     1      -0.006   7.134  -2.777  1.00  0.00     0.012 C
ATOM      9  C   UNL     1      -2.344   6.901  -3.622  1.00  0.00     0.012 C
BRANCH   6  10
ATOM     10  C   UNL     1       0.746   4.655  -4.134  1.00  0.00     0.001 C
ATOM     11  Br  UNL     1       0.316   1.895  -4.663  1.00  0.00    -0.043 Br
ATOM     12  C   UNL     1       1.303   3.468  -4.429  1.00  0.00     0.057 C
ATOM     13  Br  UNL     1       3.159   3.296  -4.635  1.00  0.00    -0.043 Br
ENDBRANCH   6  10
ENDBRANCH   3   5
ENDBRANCH   2   3
ENDBRANCH   1   2
BRANCH   1  14
ATOM     14  C   UNL     1      -1.195   1.236  -1.447  1.00  0.00     0.011 A
ATOM     15  C   UNL     1      -2.504   1.506  -1.850  1.00  0.00     0.055 A
ATOM     16  C   UNL     1      -0.611   0.007  -1.755  1.00  0.00     0.009 A
ATOM     17  C   UNL     1      -3.227   0.548  -2.560  1.00  0.00     0.127 A
ATOM     18  C   UNL     1      -1.335  -0.951  -2.465  1.00  0.00     0.004 A
ATOM     19  C   UNL     1      -2.643  -0.681  -2.867  1.00  0.00     0.047 A
BRANCH  17  20
ATOM     20  O   UNL     1      -4.504   0.811  -2.952  1.00  0.00    -0.457 OA
BRANCH  20  21
ATOM     21  C   UNL     1      -4.822   2.121  -3.273  1.00  0.00     0.127 A
ATOM     22  C   UNL     1      -4.185   2.726  -4.340  1.00  0.00     0.047 A
ATOM     23  C   UNL     1      -5.768   2.789  -2.516  1.00  0.00     0.047 A
ATOM     24  C   UNL     1      -4.505   4.046  -4.663  1.00  0.00     0.004 A
ATOM     25  C   UNL     1      -6.086   4.107  -2.837  1.00  0.00     0.004 A
ATOM     26  C   UNL     1      -5.456   4.736  -3.912  1.00  0.00     0.000 A
ENDBRANCH  20  21
ENDBRANCH  17  20
ENDBRANCH   1  14
BRANCH   1  27
ATOM     27  C   UNL     1       0.659   1.667   0.125  1.00  0.00     0.113 C
ATOM     28  N   UNL     1       1.514   1.211   0.764  1.00  0.00    -0.194 NA
ENDBRANCH   1  27
TORSDOF 8
ENDMDL
MODEL 4
REMARK VINA RESULT:    -6.965      2.308      4.474
REMARK INTER + INTRA:         -11.320
REMARK INTER:                 -10.102
REMARK INTRA:                  -1.218
REMARK UNBOUND:                -1.097
REMARK SMILES CC1(C)C(C=C(Br)Br)C1C(=O)OC(C#N)c1cccc(Oc2ccccc2)c1
REMARK SMILES IDX 13 1 12 2 10 3 11 4 9 5 4 6 2 7 1 8 3 9 5 10 7 11 6 12 8 13
REMARK SMILES IDX 16 14 28 15 17 16 20 17 18 18 19 19 21 20 22 21 23 22 27 23
REMARK SMILES IDX 24 24 26 25 25 26 14 27 15 28
REMARK H PARENT
REMARK Flexibility Score: inf
ROOT
ATOM      1  C   UNL     1      -4.691   1.460  -2.880  1.00  0.00     0.309 C
ENDROOT
BRANCH   1   2
ATOM      2  O   UNL     1      -3.362   1.706  -3.362  1.00  0.00    -0.442 OA
BRANCH   2   3
ATOM      3  C   UNL     1      -2.409   1.833  -2.400  1.00  0.00     0.311 C
ATOM      4  O   UNL     1      -1.815   0.930  -1.827  1.00  0.00    -0.252 OA
BRANCH   3   5
ATOM      5  C   UNL     1      -2.141   3.261  -2.089  1.00  0.00     0.113 C
ATOM      6  C   UNL     1      -1.123   3.579  -1.042  1.00  0.00     0.035 C
ATOM      7  C   UNL     1      -2.577   3.836  -0.780  1.00  0.00    -0.014 C
ATOM      8  C   UNL     1      -3.259   2.959   0.217  1.00  0.00     0.012 C
ATOM      9  C   UNL     1      -3.096   5.236  -0.795  1.00  0.00     0.012 C
BRANCH   6  10
ATOM     10  C   UNL     1      -0.438   2.476  -0.385  1.00  0.00     0.001 C
ATOM     11  Br  UNL     1       1.962   2.778  -1.878  1.00  0.00    -0.043 Br
ATOM     12  C   UNL     1       0.809   2.027  -0.610  1.00  0.00     0.057 C
ATOM     13  Br  UNL     1       1.505   0.578   0.357  1.00  0.00    -0.043 Br
ENDBRANCH   6  10
ENDBRANCH   3   5
ENDBRANCH   2   3
ENDBRANCH   1   2
BRANCH   1  14
ATOM     14  C   UNL     1      -5.461   2.735  -2.841  1.00  0.00     0.011 A
ATOM     15  C   UNL     1      -5.043   3.828  -3.602  1.00  0.00     0.055 A
ATOM     16  C   UNL     1      -6.602   2.836  -2.045  1.00  0.00     0.009 A
ATOM     17  C   UNL     1      -5.764   5.020  -3.565  1.00  0.00     0.127 A
ATOM     18  C   UNL     1      -7.323   4.029  -2.008  1.00  0.00     0.004 A
ATOM     19  C   UNL     1      -6.905   5.122  -2.768  1.00  0.00     0.047 A
BRANCH  17  20
ATOM     20  O   UNL     1      -5.356   6.087  -4.306  1.00  0.00    -0.457 OA
BRANCH  20  21
ATOM     21  C   UNL     1      -4.313   6.852  -3.811  1.00  0.00     0.127 A
ATOM     22  C   UNL     1      -3.020   6.564  -4.207  1.00  0.00     0.047 A
ATOM     23  C   UNL     1      -4.592   7.885  -2.934  1.00  0.00     0.047 A
ATOM     24  C   UNL     1      -1.968   7.334  -3.709  1.00  0.00     0.004 A
ATOM     25  C   UNL     1      -3.542   8.655  -2.436  1.00  0.00     0.004 A
ATOM     26  C   UNL     1      -2.230   8.381  -2.823  1.00  0.00     0.000 A
ENDBRANCH  20  21
ENDBRANCH  17  20
ENDBRANCH   1  14
BRANCH   1  27
ATOM     27  C   UNL     1      -5.334   0.433  -3.724  1.00  0.00     0.113 C
ATOM     28  N   UNL     1      -5.849  -0.374  -4.381  1.00  0.00    -0.194 NA
ENDBRANCH   1  27
TORSDOF 8
ENDMDL
MODEL 5
REMARK VINA RESULT:    -6.804      2.857      4.092
REMARK INTER + INTRA:         -11.083
REMARK INTER:                  -9.889
REMARK INTRA:                  -1.195
REMARK UNBOUND:                -1.097
REMARK SMILES CC1(C)C(C=C(Br)Br)C1C(=O)OC(C#N)c1cccc(Oc2ccccc2)c1
REMARK SMILES IDX 13 1 12 2 10 3 11 4 9 5 4 6 2 7 1 8 3 9 5 10 7 11 6 12 8 13
REMARK SMILES IDX 16 14 28 15 17 16 20 17 18 18 19 19 21 20 22 21 23 22 27 23
REMARK SMILES IDX 24 24 26 25 25 26 14 27 15 28
REMARK H PARENT
REMARK Flexibility Score: inf
ROOT
ATOM      1  C   UNL     1      -2.392   1.234  -3.354  1.00  0.00     0.309 C
ENDROOT
BRANCH   1   2
ATOM      2  O   UNL     1      -1.309   1.934  -3.982  1.00  0.00    -0.442 OA
BRANCH   2   3
ATOM      3  C   UNL     1      -0.180   2.051  -3.233  1.00  0.00     0.311 C
ATOM      4  O   UNL     1       0.937   2.354  -3.626  1.00  0.00    -0.252 OA
BRANCH   3   5
ATOM      5  C   UNL     1      -0.448   1.759  -1.801  1.00  0.00     0.113 C
ATOM      6  C   UNL     1      -0.294   2.868  -0.810  1.00  0.00     0.035 C
ATOM      7  C   UNL     1       0.680   1.727  -0.820  1.00  0.00    -0.014 C
ATOM      8  C   UNL     1       2.068   2.016  -1.288  1.00  0.00     0.012 C
ATOM      9  C   UNL     1       0.617   0.690   0.251  1.00  0.00     0.012 C
BRANCH   6  10
ATOM     10  C   UNL     1       0.101   4.181  -1.297  1.00  0.00     0.001 C
ATOM     11  Br  UNL     1      -2.421   5.384  -0.775  1.00  0.00    -0.043 Br
ATOM     12  C   UNL     1      -0.642   5.300  -1.350  1.00  0.00     0.057 C
ATOM     13  Br  UNL     1       0.068   6.901  -2.020  1.00  0.00    -0.043 Br
ENDBRANCH   6  10
ENDBRANCH   3   5
ENDBRANCH   2   3
ENDBRANCH   1   2
BRANCH   1  14
ATOM     14  C   UNL     1      -3.591   2.115  -3.278  1.00  0.00     0.011 A
ATOM     15  C   UNL     1      -3.625   3.311  -3.996  1.00  0.00     0.055 A
ATOM     16  C   UNL     1      -4.681   1.743  -2.491  1.00  0.00     0.009 A
ATOM     17  C   UNL     1      -4.748   4.135  -3.926  1.00  0.00     0.127 A
ATOM     18  C   UNL     1      -5.804   2.568  -2.421  1.00  0.00     0.004 A
ATOM     19  C   UNL     1      -5.837   3.764  -3.137  1.00  0.00     0.047 A
BRANCH  17  20
ATOM     20  O   UNL     1      -4.782   5.302  -4.625  1.00  0.00    -0.457 OA
BRANCH  20  21
ATOM     21  C   UNL     1      -4.348   6.450  -3.982  1.00  0.00     0.127 A
ATOM     22  C   UNL     1      -5.205   7.100  -3.113  1.00  0.00     0.047 A
ATOM     23  C   UNL     1      -3.068   6.916  -4.226  1.00  0.00     0.047 A
ATOM     24  C   UNL     1      -4.768   8.257  -2.465  1.00  0.00     0.004 A
ATOM     25  C   UNL     1      -2.632   8.072  -3.579  1.00  0.00     0.004 A
ATOM     26  C   UNL     1      -3.481   8.742  -2.698  1.00  0.00     0.000 A
ENDBRANCH  20  21
ENDBRANCH  17  20
ENDBRANCH   1  14
BRANCH   1  27
ATOM     27  C   UNL     1      -2.654  -0.021  -4.088  1.00  0.00     0.113 C
ATOM     28  N   UNL     1      -2.860  -1.013  -4.654  1.00  0.00    -0.194 NA
ENDBRANCH   1  27
TORSDOF 8
ENDMDL
