MODEL 1
REMARK VINA RESULT:    -6.580      0.000      0.000
REMARK INTER + INTRA:         -12.366
REMARK INTER:                  -9.273
REMARK INTRA:                  -3.094
REMARK UNBOUND:                -3.094
REMARK SMILES CC1(C)[C@H](C=C(Cl)Cl)[C@H]1C(=O)OCc1cccc(Oc2ccccc2)c1
REMARK SMILES IDX 13 1 12 2 10 3 11 4 9 5 4 6 2 7 1 8 3 9 5 10 7 11 6 12 8 13
REMARK SMILES IDX 14 14 26 15 15 16 18 17 16 18 17 19 19 20 20 21 21 22 25 23
REMARK SMILES IDX 22 24 24 25 23 26
REMARK H PARENT
REMARK Flexibility Score: inf
ROOT
ATOM      1  C   UNL     1      -0.566   6.836  -3.182  1.00  0.00     0.268 C 
ENDROOT
BRANCH   1   2
ATOM      2  O   UNL     1      -0.412   5.443  -2.938  1.00  0.00    -0.461 OA
BRANCH   2   3
ATOM      3  C   UNL     1      -0.035   5.101  -1.672  1.00  0.00     0.310 C 
ATOM      4  O   UNL     1       0.681   5.751  -0.923  1.00  0.00    -0.252 OA
BRANCH   3   5
ATOM      5  C   UNL     1      -0.605   3.793  -1.260  1.00  0.00     0.113 C 
ATOM      6  C   UNL     1      -1.788   3.267  -2.009  1.00  0.00     0.035 C 
ATOM      7  C   UNL     1      -1.941   3.735  -0.591  1.00  0.00    -0.014 C 
ATOM      8  C   UNL     1      -2.198   2.697   0.449  1.00  0.00     0.012 C 
ATOM      9  C   UNL     1      -2.617   5.034  -0.308  1.00  0.00     0.012 C 
BRANCH   6  10
ATOM     10  C   UNL     1      -1.828   1.847  -2.325  1.00  0.00     0.011 C 
ATOM     11  Cl  UNL     1      -0.164   2.038  -4.435  1.00  0.00    -0.071 Cl
ATOM     12  C   UNL     1      -1.190   1.211  -3.320  1.00  0.00     0.103 C 
ATOM     13  Cl  UNL     1      -1.375  -0.496  -3.527  1.00  0.00    -0.071 Cl
ENDBRANCH   6  10
ENDBRANCH   3   5
ENDBRANCH   2   3
ENDBRANCH   1   2
BRANCH   1  14
ATOM     14  C   UNL     1      -2.005   7.207  -3.053  1.00  0.00    -0.007 A 
ATOM     15  C   UNL     1      -2.987   6.398  -3.623  1.00  0.00     0.054 A 
ATOM     16  C   UNL     1      -2.367   8.362  -2.361  1.00  0.00     0.007 A 
ATOM     17  C   UNL     1      -4.333   6.745  -3.502  1.00  0.00     0.127 A 
ATOM     18  C   UNL     1      -3.712   8.710  -2.240  1.00  0.00     0.004 A 
ATOM     19  C   UNL     1      -4.695   7.900  -2.810  1.00  0.00     0.047 A 
BRANCH  17  20
ATOM     20  O   UNL     1      -5.292   5.956  -4.058  1.00  0.00    -0.457 OA
BRANCH  20  21
ATOM     21  C   UNL     1      -5.299   4.614  -3.719  1.00  0.00     0.127 A 
ATOM     22  C   UNL     1      -5.686   4.243  -2.443  1.00  0.00     0.047 A 
ATOM     23  C   UNL     1      -4.919   3.678  -4.663  1.00  0.00     0.047 A 
ATOM     24  C   UNL     1      -5.693   2.892  -2.102  1.00  0.00     0.004 A 
ATOM     25  C   UNL     1      -4.926   2.325  -4.320  1.00  0.00     0.004 A 
ATOM     26  C   UNL     1      -5.314   1.932  -3.040  1.00  0.00     0.000 A 
ENDBRANCH  20  21
ENDBRANCH  17  20
ENDBRANCH   1  14
TORSDOF 7
ENDMDL
MODEL 2
REMARK VINA RESULT:    -6.463      3.312      5.368
REMARK INTER + INTRA:         -12.201
REMARK INTER:                 -10.008
REMARK INTRA:                  -2.193
REMARK UNBOUND:                -3.094
REMARK SMILES CC1(C)[C@H](C=C(Cl)Cl)[C@H]1C(=O)OCc1cccc(Oc2ccccc2)c1
REMARK SMILES IDX 13 1 12 2 10 3 11 4 9 5 4 6 2 7 1 8 3 9 5 10 7 11 6 12 8 13
REMARK SMILES IDX 14 14 26 15 15 16 18 17 16 18 17 19 19 20 20 21 21 22 25 23
REMARK SMILES IDX 22 24 24 25 23 26
REMARK H PARENT
REMARK Flexibility Score: inf
ROOT
ATOM      1  C   UNL     1      -2.785   3.654   0.060  1.00  0.00     0.268 C 
ENDROOT
BRANCH   1   2
ATOM      2  O   UNL     1      -2.400   5.006  -0.157  1.00  0.00    -0.461 OA
BRANCH   2   3
ATOM      3  C   UNL     1      -1.234   5.188  -0.842  1.00  0.00     0.310 C 
ATOM      4  O   UNL     1      -0.211   4.528  -0.728  1.00  0.00    -0.252 OA
BRANCH   3   5
ATOM      5  C   UNL     1      -1.324   6.324  -1.794  1.00  0.00     0.113 C 
ATOM      6  C   UNL     1      -2.659   6.651  -2.384  1.00  0.00     0.035 C 
ATOM      7  C   UNL     1      -1.578   6.068  -3.245  1.00  0.00    -0.014 C 
ATOM      8  C   UNL     1      -0.959   6.960  -4.268  1.00  0.00     0.012 C 
ATOM      9  C   UNL     1      -1.663   4.643  -3.679  1.00  0.00     0.012 C 
BRANCH   6  10
ATOM     10  C   UNL     1      -3.030   8.053  -2.515  1.00  0.00     0.011 C 
ATOM     11  Cl  UNL     1      -5.641   7.554  -2.958  1.00  0.00    -0.071 Cl
ATOM     12  C   UNL     1      -4.250   8.558  -2.756  1.00  0.00     0.103 C 
ATOM     13  Cl  UNL     1      -4.480  10.267  -2.880  1.00  0.00    -0.071 Cl
ENDBRANCH   6  10
ENDBRANCH   3   5
ENDBRANCH   2   3
ENDBRANCH   1   2
BRANCH   1  14
ATOM     14  C   UNL     1      -3.751   3.237  -0.996  1.00  0.00    -0.007 A 
ATOM     15  C   UNL     1      -4.847   4.045  -1.297  1.00  0.00     0.054 A 
ATOM     16  C   UNL     1      -3.557   2.039  -1.685  1.00  0.00     0.007 A 
ATOM     17  C   UNL     1      -5.750   3.655  -2.286  1.00  0.00     0.127 A 
ATOM     18  C   UNL     1      -4.461   1.649  -2.673  1.00  0.00     0.004 A 
ATOM     19  C   UNL     1      -5.557   2.457  -2.974  1.00  0.00     0.047 A 
BRANCH  17  20
ATOM     20  O   UNL     1      -6.820   4.443  -2.580  1.00  0.00    -0.457 OA
BRANCH  20  21
ATOM     21  C   UNL     1      -7.815   4.562  -1.625  1.00  0.00     0.127 A 
ATOM     22  C   UNL     1      -8.062   5.801  -1.059  1.00  0.00     0.047 A 
ATOM     23  C   UNL     1      -8.537   3.440  -1.260  1.00  0.00     0.047 A 
ATOM     24  C   UNL     1      -9.064   5.920  -0.097  1.00  0.00     0.004 A 
ATOM     25  C   UNL     1      -9.540   3.561  -0.297  1.00  0.00     0.004 A 
ATOM     26  C   UNL     1      -9.803   4.801   0.283  1.00  0.00     0.000 A 
ENDBRANCH  20  21
ENDBRANCH  17  20
ENDBRANCH   1  14
TORSDOF 7
ENDMDL
MODEL 3
REMARK VINA RESULT:    -6.326      2.513      5.061
REMARK INTER + INTRA:         -12.008
REMARK INTER:                  -9.844
REMARK INTRA:                  -2.163
REMARK UNBOUND:                -3.094
REMARK SMILES CC1(C)[C@H](C=C(Cl)Cl)[C@H]1C(=O)OCc1cccc(Oc2ccccc2)c1
REMARK SMILES IDX 13 1 12 2 10 3 11 4 9 5 4 6 2 7 1 8 3 9 5 10 7 11 6 12 8 13
REMARK SMILES IDX 14 14 26 15 15 16 18 17 16 18 17 19 19 20 20 21 21 22 25 23
REMARK SMILES IDX 22 24 24 25 23 26
REMARK H PARENT
REMARK Flexibility Score: inf
ROOT
ATOM      1  C   UNL     1       1.263   3.682  -2.139  1.00  0.00     0.268 C 
ENDROOT
BRANCH   1   2
ATOM      2  O   UNL     1       0.334   4.705  -2.475  1.00  0.00    -0.461 OA
BRANCH   2   3
ATOM      3  C   UNL     1       0.141   5.668  -1.527  1.00  0.00     0.310 C 
ATOM      4  O   UNL     1       0.992   6.145  -0.789  1.00  0.00    -0.252 OA
BRANCH   3   5
ATOM      5  C   UNL     1      -1.275   6.111  -1.470  1.00  0.00     0.113 C 
ATOM      6  C   UNL     1      -2.133   5.903  -2.677  1.00  0.00     0.035 C 
ATOM      7  C   UNL     1      -1.724   7.289  -2.274  1.00  0.00    -0.014 C 
ATOM      8  C   UNL     1      -2.786   8.187  -1.731  1.00  0.00     0.012 C 
ATOM      9  C   UNL     1      -0.683   8.014  -3.059  1.00  0.00     0.012 C 
BRANCH   6  10
ATOM     10  C   UNL     1      -3.503   5.451  -2.480  1.00  0.00     0.011 C 
ATOM     11  Cl  UNL     1      -2.809   3.173  -1.219  1.00  0.00    -0.071 Cl
ATOM     12  C   UNL     1      -3.915   4.322  -1.882  1.00  0.00     0.103 C 
ATOM     13  Cl  UNL     1      -5.602   3.967  -1.752  1.00  0.00    -0.071 Cl
ENDBRANCH   6  10
ENDBRANCH   3   5
ENDBRANCH   2   3
ENDBRANCH   1   2
BRANCH   1  14
ATOM     14  C   UNL     1       0.557   2.370  -2.083  1.00  0.00    -0.007 A 
ATOM     15  C   UNL     1      -0.086   1.876  -3.219  1.00  0.00     0.054 A 
ATOM     16  C   UNL     1       0.541   1.636  -0.897  1.00  0.00     0.007 A 
ATOM     17  C   UNL     1      -0.746   0.648  -3.166  1.00  0.00     0.127 A 
ATOM     18  C   UNL     1      -0.120   0.409  -0.845  1.00  0.00     0.004 A 
ATOM     19  C   UNL     1      -0.763  -0.085  -1.980  1.00  0.00     0.047 A 
BRANCH  17  20
ATOM     20  O   UNL     1      -1.374   0.165  -4.274  1.00  0.00    -0.457 OA
BRANCH  20  21
ATOM     21  C   UNL     1      -2.754   0.261  -4.325  1.00  0.00     0.127 A 
ATOM     22  C   UNL     1      -3.509  -0.900  -4.344  1.00  0.00     0.047 A 
ATOM     23  C   UNL     1      -3.343   1.511  -4.356  1.00  0.00     0.047 A 
ATOM     24  C   UNL     1      -4.899  -0.804  -4.395  1.00  0.00     0.004 A 
ATOM     25  C   UNL     1      -4.735   1.605  -4.407  1.00  0.00     0.004 A 
ATOM     26  C   UNL     1      -5.512   0.448  -4.426  1.00  0.00     0.000 A 
ENDBRANCH  20  21
ENDBRANCH  17  20
ENDBRANCH   1  14
TORSDOF 7
ENDMDL
MODEL 4
REMARK VINA RESULT:    -6.225      2.395      4.682
REMARK INTER + INTRA:         -11.867
REMARK INTER:                  -9.797
REMARK INTRA:                  -2.069
REMARK UNBOUND:                -3.094
REMARK SMILES CC1(C)[C@H](C=C(Cl)Cl)[C@H]1C(=O)OCc1cccc(Oc2ccccc2)c1
REMARK SMILES IDX 13 1 12 2 10 3 11 4 9 5 4 6 2 7 1 8 3 9 5 10 7 11 6 12 8 13
REMARK SMILES IDX 14 14 26 15 15 16 18 17 16 18 17 19 19 20 20 21 21 22 25 23
REMARK SMILES IDX 22 24 24 25 23 26
REMARK H PARENT
REMARK Flexibility Score: inf
ROOT
ATOM      1  C   UNL     1      -4.757   1.657  -3.774  1.00  0.00     0.268 C 
ENDROOT
BRANCH   1   2
ATOM      2  O   UNL     1      -3.340   1.730  -3.872  1.00  0.00    -0.461 OA
BRANCH   2   3
ATOM      3  C   UNL     1      -2.643   1.141  -2.858  1.00  0.00     0.310 C 
ATOM      4  O   UNL     1      -2.809   0.011  -2.419  1.00  0.00    -0.252 OA
BRANCH   3   5
ATOM      5  C   UNL     1      -1.604   2.045  -2.303  1.00  0.00     0.113 C 
ATOM      6  C   UNL     1      -0.930   1.652  -1.027  1.00  0.00     0.035 C 
ATOM      7  C   UNL     1      -1.875   2.818  -1.051  1.00  0.00    -0.014 C 
ATOM      8  C   UNL     1      -1.288   4.180  -0.887  1.00  0.00     0.012 C 
ATOM      9  C   UNL     1      -3.233   2.684  -0.449  1.00  0.00     0.012 C 
BRANCH   6  10
ATOM     10  C   UNL     1       0.505   1.868  -0.910  1.00  0.00     0.011 C 
ATOM     11  Cl  UNL     1       0.891  -0.125   0.861  1.00  0.00    -0.071 Cl
ATOM     12  C   UNL     1       1.377   1.188  -0.150  1.00  0.00     0.103 C 
ATOM     13  Cl  UNL     1       3.054   1.609  -0.153  1.00  0.00    -0.071 Cl
ENDBRANCH   6  10
ENDBRANCH   3   5
ENDBRANCH   2   3
ENDBRANCH   1   2
BRANCH   1  14
ATOM     14  C   UNL     1      -5.293   2.982  -3.349  1.00  0.00    -0.007 A 
ATOM     15  C   UNL     1      -4.725   4.156  -3.845  1.00  0.00     0.054 A 
ATOM     16  C   UNL     1      -6.363   3.047  -2.456  1.00  0.00     0.007 A 
ATOM     17  C   UNL     1      -5.228   5.395  -3.447  1.00  0.00     0.127 A 
ATOM     18  C   UNL     1      -6.865   4.286  -2.059  1.00  0.00     0.004 A 
ATOM     19  C   UNL     1      -6.297   5.460  -2.555  1.00  0.00     0.047 A 
BRANCH  17  20
ATOM     20  O   UNL     1      -4.674   6.540  -3.931  1.00  0.00    -0.457 OA
BRANCH  20  21
ATOM     21  C   UNL     1      -3.467   6.950  -3.392  1.00  0.00     0.127 A 
ATOM     22  C   UNL     1      -2.302   6.732  -4.108  1.00  0.00     0.047 A 
ATOM     23  C   UNL     1      -3.454   7.565  -2.154  1.00  0.00     0.047 A 
ATOM     24  C   UNL     1      -1.086   7.144  -3.565  1.00  0.00     0.004 A 
ATOM     25  C   UNL     1      -2.236   7.978  -1.612  1.00  0.00     0.004 A 
ATOM     26  C   UNL     1      -1.052   7.767  -2.318  1.00  0.00     0.000 A 
ENDBRANCH  20  21
ENDBRANCH  17  20
ENDBRANCH   1  14
TORSDOF 7
ENDMDL
MODEL 5
REMARK VINA RESULT:    -6.211      2.751      5.375
REMARK INTER + INTRA:         -11.846
REMARK INTER:                  -8.794
REMARK INTRA:                  -3.052
REMARK UNBOUND:                -3.094
REMARK SMILES CC1(C)[C@H](C=C(Cl)Cl)[C@H]1C(=O)OCc1cccc(Oc2ccccc2)c1
REMARK SMILES IDX 13 1 12 2 10 3 11 4 9 5 4 6 2 7 1 8 3 9 5 10 7 11 6 12 8 13
REMARK SMILES IDX 14 14 26 15 15 16 18 17 16 18 17 19 19 20 20 21 21 22 25 23
REMARK SMILES IDX 22 24 24 25 23 26
REMARK H PARENT
REMARK Flexibility Score: inf
ROOT
ATOM      1  C   UNL     1      -0.601   0.982  -0.798  1.00  0.00     0.268 C 
ENDROOT
BRANCH   1   2
ATOM      2  O   UNL     1      -0.555   2.403  -0.774  1.00  0.00    -0.461 OA
BRANCH   2   3
ATOM      3  C   UNL     1       0.563   2.970  -1.314  1.00  0.00     0.310 C 
ATOM      4  O   UNL     1       1.702   2.529  -1.261  1.00  0.00    -0.252 OA
BRANCH   3   5
ATOM      5  C   UNL     1       0.255   4.243  -2.014  1.00  0.00     0.113 C 
ATOM      6  C   UNL     1      -1.152   4.482  -2.464  1.00  0.00     0.035 C 
ATOM      7  C   UNL     1      -0.070   4.236  -3.474  1.00  0.00    -0.014 C 
ATOM      8  C   UNL     1       0.349   5.387  -4.325  1.00  0.00     0.012 C 
ATOM      9  C   UNL     1       0.001   2.924  -4.180  1.00  0.00     0.012 C 
BRANCH   6  10
ATOM     10  C   UNL     1      -1.713   5.815  -2.294  1.00  0.00     0.011 C 
ATOM     11  Cl  UNL     1      -2.538   5.392   0.235  1.00  0.00    -0.071 Cl
ATOM     12  C   UNL     1      -2.321   6.315  -1.208  1.00  0.00     0.103 C 
ATOM     13  Cl  UNL     1      -2.924   7.936  -1.211  1.00  0.00    -0.071 Cl
ENDBRANCH   6  10
ENDBRANCH   3   5
ENDBRANCH   2   3
ENDBRANCH   1   2
BRANCH   1  14
ATOM     14  C   UNL     1      -1.449   0.532  -1.939  1.00  0.00    -0.007 A 
ATOM     15  C   UNL     1      -2.701   1.111  -2.148  1.00  0.00     0.054 A 
ATOM     16  C   UNL     1      -0.990  -0.466  -2.798  1.00  0.00     0.007 A 
ATOM     17  C   UNL     1      -3.494   0.690  -3.215  1.00  0.00     0.127 A 
ATOM     18  C   UNL     1      -1.784  -0.887  -3.865  1.00  0.00     0.004 A 
ATOM     19  C   UNL     1      -3.036  -0.308  -4.073  1.00  0.00     0.047 A 
BRANCH  17  20
ATOM     20  O   UNL     1      -4.716   1.254  -3.419  1.00  0.00    -0.457 OA
BRANCH  20  21
ATOM     21  C   UNL     1      -4.782   2.634  -3.508  1.00  0.00     0.127 A 
ATOM     22  C   UNL     1      -4.166   3.271  -4.571  1.00  0.00     0.047 A 
ATOM     23  C   UNL     1      -5.461   3.342  -2.533  1.00  0.00     0.047 A 
ATOM     24  C   UNL     1      -4.232   4.660  -4.661  1.00  0.00     0.004 A 
ATOM     25  C   UNL     1      -5.527   4.732  -2.624  1.00  0.00     0.004 A 
ATOM     26  C   UNL     1      -4.913   5.391  -3.689  1.00  0.00     0.000 A 
ENDBRANCH  20  21
ENDBRANCH  17  20
ENDBRANCH   1  14
TORSDOF 7
ENDMDL
