MODEL 1
REMARK VINA RESULT:    -6.918      0.000      0.000
REMARK INTER + INTRA:         -11.643
REMARK INTER:                 -10.153
REMARK INTRA:                  -1.489
REMARK UNBOUND:                -1.489
REMARK SMILES CC1(C)C(C=C(Br)Br)C1C(=O)OC(C#N)c1cccc(Oc2ccccc2)c1
REMARK SMILES IDX 13 1 12 2 10 3 11 4 9 5 4 6 2 7 1 8 3 9 5 10 7 11 6 12 8 13
REMARK SMILES IDX 16 14 28 15 17 16 20 17 18 18 19 19 21 20 22 21 23 22 27 23
REMARK SMILES IDX 24 24 26 25 25 26 14 27 15 28
REMARK H PARENT
REMARK Flexibility Score: inf
ROOT
ATOM      1  C   UNL     1      -4.443   1.587  -2.814  1.00  0.00     0.309 C
ENDROOT
BRANCH   1   2
ATOM      2  O   UNL     1      -3.110   1.762  -3.313  1.00  0.00    -0.442 OA
BRANCH   2   3
ATOM      3  C   UNL     1      -2.116   1.453  -2.438  1.00  0.00     0.311 C
ATOM      4  O   UNL     1      -1.788   0.337  -2.058  1.00  0.00    -0.252 OA
BRANCH   3   5
ATOM      5  C   UNL     1      -1.421   2.674  -1.954  1.00  0.00     0.113 C
ATOM      6  C   UNL     1      -0.574   2.569  -0.727  1.00  0.00     0.035 C
ATOM      7  C   UNL     1      -1.864   3.335  -0.688  1.00  0.00    -0.014 C
ATOM      8  C   UNL     1      -2.987   2.741   0.096  1.00  0.00     0.012 C
ATOM      9  C   UNL     1      -1.839   4.826  -0.657  1.00  0.00     0.012 C
BRANCH   6  10
ATOM     10  C   UNL     1      -0.462   1.275  -0.072  1.00  0.00     0.001 C
ATOM     11  Br  UNL     1       2.367   1.391   0.177  1.00  0.00    -0.043 Br
ATOM     12  C   UNL     1       0.653   0.659   0.355  1.00  0.00     0.057 C
ATOM     13  Br  UNL     1       0.574  -1.023   1.182  1.00  0.00    -0.043 Br
ENDBRANCH   6  10
ENDBRANCH   3   5
ENDBRANCH   2   3
ENDBRANCH   1   2
BRANCH   1  14
ATOM     14  C   UNL     1      -5.160   2.894  -2.812  1.00  0.00     0.011 A
ATOM     15  C   UNL     1      -4.611   3.993  -3.473  1.00  0.00     0.055 A
ATOM     16  C   UNL     1      -6.382   3.017  -2.150  1.00  0.00     0.009 A
ATOM     17  C   UNL     1      -5.283   5.214  -3.471  1.00  0.00     0.127 A
ATOM     18  C   UNL     1      -7.053   4.240  -2.148  1.00  0.00     0.004 A
ATOM     19  C   UNL     1      -6.504   5.339  -2.809  1.00  0.00     0.047 A
BRANCH  17  20
ATOM     20  O   UNL     1      -4.747   6.288  -4.116  1.00  0.00    -0.457 OA
BRANCH  20  21
ATOM     21  C   UNL     1      -3.622   6.876  -3.561  1.00  0.00     0.127 A
ATOM     22  C   UNL     1      -3.755   7.629  -2.409  1.00  0.00     0.047 A
ATOM     23  C   UNL     1      -2.395   6.694  -4.173  1.00  0.00     0.047 A
ATOM     24  C   UNL     1      -2.623   8.222  -1.849  1.00  0.00     0.004 A
ATOM     25  C   UNL     1      -1.263   7.287  -3.614  1.00  0.00     0.004 A
ATOM     26  C   UNL     1      -1.376   8.050  -2.452  1.00  0.00     0.000 A
ENDBRANCH  20  21
ENDBRANCH  17  20
ENDBRANCH   1  14
BRANCH   1  27
ATOM     27  C   UNL     1      -5.135   0.560  -3.617  1.00  0.00     0.113 C
ATOM     28  N   UNL     1      -5.685  -0.251  -4.240  1.00  0.00    -0.194 NA
ENDBRANCH   1  27
TORSDOF 8
ENDMDL
MODEL 2
REMARK VINA RESULT:    -6.671      1.949      4.105
REMARK INTER + INTRA:         -11.280
REMARK INTER:                 -10.442
REMARK INTRA:                  -0.838
REMARK UNBOUND:                -1.489
REMARK SMILES CC1(C)C(C=C(Br)Br)C1C(=O)OC(C#N)c1cccc(Oc2ccccc2)c1
REMARK SMILES IDX 13 1 12 2 10 3 11 4 9 5 4 6 2 7 1 8 3 9 5 10 7 11 6 12 8 13
REMARK SMILES IDX 16 14 28 15 17 16 20 17 18 18 19 19 21 20 22 21 23 22 27 23
REMARK SMILES IDX 24 24 26 25 25 26 14 27 15 28
REMARK H PARENT
REMARK Flexibility Score: inf
ROOT
ATOM      1  C   UNL     1      -4.237   1.473  -2.601  1.00  0.00     0.309 C
ENDROOT
BRANCH   1   2
ATOM      2  O   UNL     1      -2.938   1.563  -3.203  1.00  0.00    -0.442 OA
BRANCH   2   3
ATOM      3  C   UNL     1      -1.923   1.020  -2.479  1.00  0.00     0.311 C
ATOM      4  O   UNL     1      -1.830  -0.137  -2.093  1.00  0.00    -0.252 OA
BRANCH   3   5
ATOM      5  C   UNL     1      -0.872   2.026  -2.179  1.00  0.00     0.113 C
ATOM      6  C   UNL     1       0.117   1.720  -1.101  1.00  0.00     0.035 C
ATOM      7  C   UNL     1      -0.913   2.792  -0.895  1.00  0.00    -0.014 C
ATOM      8  C   UNL     1      -2.000   2.515   0.090  1.00  0.00     0.012 C
ATOM      9  C   UNL     1      -0.509   4.227  -0.949  1.00  0.00     0.012 C
BRANCH   6  10
ATOM     10  C   UNL     1       0.009   0.447  -0.404  1.00  0.00     0.001 C
ATOM     11  Br  UNL     1       2.143   0.991   1.393  1.00  0.00    -0.043 Br
ATOM     12  C   UNL     1       0.753   0.002   0.623  1.00  0.00     0.057 C
ATOM     13  Br  UNL     1       0.444  -1.684   1.382  1.00  0.00    -0.043 Br
ENDBRANCH   6  10
ENDBRANCH   3   5
ENDBRANCH   2   3
ENDBRANCH   1   2
BRANCH   1  14
ATOM     14  C   UNL     1      -4.864   2.824  -2.540  1.00  0.00     0.011 A
ATOM     15  C   UNL     1      -6.253   2.949  -2.517  1.00  0.00     0.055 A
ATOM     16  C   UNL     1      -4.061   3.964  -2.504  1.00  0.00     0.009 A
ATOM     17  C   UNL     1      -6.839   4.213  -2.459  1.00  0.00     0.127 A
ATOM     18  C   UNL     1      -4.647   5.228  -2.447  1.00  0.00     0.004 A
ATOM     19  C   UNL     1      -6.036   5.353  -2.425  1.00  0.00     0.047 A
BRANCH  17  20
ATOM     20  O   UNL     1      -8.195   4.335  -2.438  1.00  0.00    -0.457 OA
BRANCH  20  21
ATOM     21  C   UNL     1      -8.818   4.371  -1.201  1.00  0.00     0.127 A
ATOM     22  C   UNL     1      -8.779   5.539  -0.461  1.00  0.00     0.047 A
ATOM     23  C   UNL     1      -9.462   3.238  -0.738  1.00  0.00     0.047 A
ATOM     24  C   UNL     1      -9.406   5.576   0.785  1.00  0.00     0.004 A
ATOM     25  C   UNL     1     -10.088   3.274   0.507  1.00  0.00     0.004 A
ATOM     26  C   UNL     1     -10.062   4.443   1.269  1.00  0.00     0.000 A
ENDBRANCH  20  21
ENDBRANCH  17  20
ENDBRANCH   1  14
BRANCH   1  27
ATOM     27  C   UNL     1      -5.057   0.500  -3.351  1.00  0.00     0.113 C
ATOM     28  N   UNL     1      -5.699  -0.273  -3.933  1.00  0.00    -0.194 NA
ENDBRANCH   1  27
TORSDOF 8
ENDMDL
MODEL 3
REMARK VINA RESULT:    -6.575      1.857      2.583
REMARK INTER + INTRA:         -11.140
REMARK INTER:                  -9.612
REMARK INTRA:                  -1.527
REMARK UNBOUND:                -1.489
REMARK SMILES CC1(C)C(C=C(Br)Br)C1C(=O)OC(C#N)c1cccc(Oc2ccccc2)c1
REMARK SMILES IDX 13 1 12 2 10 3 11 4 9 5 4 6 2 7 1 8 3 9 5 10 7 11 6 12 8 13
REMARK SMILES IDX 16 14 28 15 17 16 20 17 18 18 19 19 21 20 22 21 23 22 27 23
REMARK SMILES IDX 24 24 26 25 25 26 14 27 15 28
REMARK H PARENT
REMARK Flexibility Score: inf
ROOT
ATOM      1  C   UNL     1      -4.559   1.209  -3.016  1.00  0.00     0.309 C
ENDROOT
BRANCH   1   2
ATOM      2  O   UNL     1      -3.219   1.340  -3.509  1.00  0.00    -0.442 OA
BRANCH   2   3
ATOM      3  C   UNL     1      -2.241   0.976  -2.637  1.00  0.00     0.311 C
ATOM      4  O   UNL     1      -1.419   0.082  -2.783  1.00  0.00    -0.252 OA
BRANCH   3   5
ATOM      5  C   UNL     1      -2.265   1.817  -1.413  1.00  0.00     0.113 C
ATOM      6  C   UNL     1      -1.493   3.097  -1.416  1.00  0.00     0.035 C
ATOM      7  C   UNL     1      -1.038   1.945  -0.569  1.00  0.00    -0.014 C
ATOM      8  C   UNL     1       0.214   1.245  -0.982  1.00  0.00     0.012 C
ATOM      9  C   UNL     1      -1.234   1.992   0.910  1.00  0.00     0.012 C
BRANCH   6  10
ATOM     10  C   UNL     1      -0.763   3.461  -2.621  1.00  0.00     0.001 C
ATOM     11  Br  UNL     1       0.473   5.741  -1.456  1.00  0.00    -0.043 Br
ATOM     12  C   UNL     1       0.070   4.500  -2.799  1.00  0.00     0.057 C
ATOM     13  Br  UNL     1       0.916   4.791  -4.447  1.00  0.00    -0.043 Br
ENDBRANCH   6  10
ENDBRANCH   3   5
ENDBRANCH   2   3
ENDBRANCH   1   2
BRANCH   1  14
ATOM     14  C   UNL     1      -5.227   2.542  -2.997  1.00  0.00     0.011 A
ATOM     15  C   UNL     1      -4.735   3.581  -3.789  1.00  0.00     0.055 A
ATOM     16  C   UNL     1      -6.345   2.751  -2.189  1.00  0.00     0.009 A
ATOM     17  C   UNL     1      -5.360   4.826  -3.771  1.00  0.00     0.127 A
ATOM     18  C   UNL     1      -6.969   3.998  -2.172  1.00  0.00     0.004 A
ATOM     19  C   UNL     1      -6.477   5.036  -2.962  1.00  0.00     0.047 A
BRANCH  17  20
ATOM     20  O   UNL     1      -4.880   5.841  -4.543  1.00  0.00    -0.457 OA
BRANCH  20  21
ATOM     21  C   UNL     1      -3.939   6.687  -3.980  1.00  0.00     0.127 A
ATOM     22  C   UNL     1      -2.644   6.671  -4.464  1.00  0.00     0.047 A
ATOM     23  C   UNL     1      -4.320   7.527  -2.948  1.00  0.00     0.047 A
ATOM     24  C   UNL     1      -1.696   7.523  -3.897  1.00  0.00     0.004 A
ATOM     25  C   UNL     1      -3.372   8.378  -2.381  1.00  0.00     0.004 A
ATOM     26  C   UNL     1      -2.060   8.378  -2.856  1.00  0.00     0.000 A
ENDBRANCH  20  21
ENDBRANCH  17  20
ENDBRANCH   1  14
BRANCH   1  27
ATOM     27  C   UNL     1      -5.288   0.220  -3.836  1.00  0.00     0.113 C
ATOM     28  N   UNL     1      -5.870  -0.552  -4.478  1.00  0.00    -0.194 NA
ENDBRANCH   1  27
TORSDOF 8
ENDMDL
MODEL 4
REMARK VINA RESULT:    -6.522      3.446      5.430
REMARK INTER + INTRA:         -11.061
REMARK INTER:                  -9.807
REMARK INTRA:                  -1.254
REMARK UNBOUND:                -1.489
REMARK SMILES CC1(C)C(C=C(Br)Br)C1C(=O)OC(C#N)c1cccc(Oc2ccccc2)c1
REMARK SMILES IDX 13 1 12 2 10 3 11 4 9 5 4 6 2 7 1 8 3 9 5 10 7 11 6 12 8 13
REMARK SMILES IDX 16 14 28 15 17 16 20 17 18 18 19 19 21 20 22 21 23 22 27 23
REMARK SMILES IDX 24 24 26 25 25 26 14 27 15 28
REMARK H PARENT
REMARK Flexibility Score: inf
ROOT
ATOM      1  C   UNL     1      -0.463   1.654  -1.473  1.00  0.00     0.309 C
ENDROOT
BRANCH   1   2
ATOM      2  O   UNL     1      -1.693   1.995  -0.819  1.00  0.00    -0.442 OA
BRANCH   2   3
ATOM      3  C   UNL     1      -2.823   1.676  -1.504  1.00  0.00     0.311 C
ATOM      4  O   UNL     1      -3.978   1.856  -1.144  1.00  0.00    -0.252 OA
BRANCH   3   5
ATOM      5  C   UNL     1      -2.505   1.049  -2.813  1.00  0.00     0.113 C
ATOM      6  C   UNL     1      -3.260   1.504  -4.020  1.00  0.00     0.035 C
ATOM      7  C   UNL     1      -3.490   0.130  -3.462  1.00  0.00    -0.014 C
ATOM      8  C   UNL     1      -4.802  -0.127  -2.797  1.00  0.00     0.012 C
ATOM      9  C   UNL     1      -2.940  -1.060  -4.174  1.00  0.00     0.012 C
BRANCH   6  10
ATOM     10  C   UNL     1      -4.263   2.545  -3.857  1.00  0.00     0.001 C
ATOM     11  Br  UNL     1      -2.530   4.654  -4.653  1.00  0.00    -0.043 Br
ATOM     12  C   UNL     1      -4.125   3.865  -4.071  1.00  0.00     0.057 C
ATOM     13  Br  UNL     1      -5.557   5.044  -3.797  1.00  0.00    -0.043 Br
ENDBRANCH   6  10
ENDBRANCH   3   5
ENDBRANCH   2   3
ENDBRANCH   1   2
BRANCH   1  14
ATOM     14  C   UNL     1       0.096   2.852  -2.160  1.00  0.00     0.011 A
ATOM     15  C   UNL     1      -0.118   4.125  -1.630  1.00  0.00     0.055 A
ATOM     16  C   UNL     1       0.836   2.702  -3.333  1.00  0.00     0.009 A
ATOM     17  C   UNL     1       0.405   5.246  -2.273  1.00  0.00     0.127 A
ATOM     18  C   UNL     1       1.359   3.824  -3.976  1.00  0.00     0.004 A
ATOM     19  C   UNL     1       1.144   5.096  -3.447  1.00  0.00     0.047 A
BRANCH  17  20
ATOM     20  O   UNL     1       0.196   6.488  -1.756  1.00  0.00    -0.457 OA
BRANCH  20  21
ATOM     21  C   UNL     1      -0.948   7.164  -2.150  1.00  0.00     0.127 A
ATOM     22  C   UNL     1      -2.105   7.017  -1.408  1.00  0.00     0.047 A
ATOM     23  C   UNL     1      -0.903   7.967  -3.275  1.00  0.00     0.047 A
ATOM     24  C   UNL     1      -3.258   7.697  -1.804  1.00  0.00     0.004 A
ATOM     25  C   UNL     1      -2.054   8.646  -3.672  1.00  0.00     0.004 A
ATOM     26  C   UNL     1      -3.232   8.512  -2.936  1.00  0.00     0.000 A
ENDBRANCH  20  21
ENDBRANCH  17  20
ENDBRANCH   1  14
BRANCH   1  27
ATOM     27  C   UNL     1       0.473   1.077  -0.487  1.00  0.00     0.113 C
ATOM     28  N   UNL     1       1.208   0.633   0.294  1.00  0.00    -0.194 NA
ENDBRANCH   1  27
TORSDOF 8
ENDMDL
MODEL 5
REMARK VINA RESULT:    -6.494      3.492      5.871
REMARK INTER + INTRA:         -11.020
REMARK INTER:                  -9.678
REMARK INTRA:                  -1.342
REMARK UNBOUND:                -1.489
REMARK SMILES CC1(C)C(C=C(Br)Br)C1C(=O)OC(C#N)c1cccc(Oc2ccccc2)c1
REMARK SMILES IDX 13 1 12 2 10 3 11 4 9 5 4 6 2 7 1 8 3 9 5 10 7 11 6 12 8 13
REMARK SMILES IDX 16 14 28 15 17 16 20 17 18 18 19 19 21 20 22 21 23 22 27 23
REMARK SMILES IDX 24 24 26 25 25 26 14 27 15 28
REMARK H PARENT
REMARK Flexibility Score: inf
ROOT
ATOM      1  C   UNL     1      -0.735   1.667  -0.958  1.00  0.00     0.309 C
ENDROOT
BRANCH   1   2
ATOM      2  O   UNL     1       0.069   2.640  -1.638  1.00  0.00    -0.442 OA
BRANCH   2   3
ATOM      3  C   UNL     1      -0.310   3.934  -1.460  1.00  0.00     0.311 C
ATOM      4  O   UNL     1      -1.195   4.349  -0.725  1.00  0.00    -0.252 OA
BRANCH   3   5
ATOM      5  C   UNL     1       0.503   4.856  -2.296  1.00  0.00     0.113 C
ATOM      6  C   UNL     1      -0.148   6.094  -2.823  1.00  0.00     0.035 C
ATOM      7  C   UNL     1       0.223   4.981  -3.759  1.00  0.00    -0.014 C
ATOM      8  C   UNL     1      -0.893   4.196  -4.364  1.00  0.00     0.012 C
ATOM      9  C   UNL     1       1.401   5.136  -4.663  1.00  0.00     0.012 C
BRANCH   6  10
ATOM     10  C   UNL     1      -1.541   6.341  -2.485  1.00  0.00     0.001 C
ATOM     11  Br  UNL     1      -1.722   8.736  -4.006  1.00  0.00    -0.043 Br
ATOM     12  C   UNL     1      -2.318   7.364  -2.881  1.00  0.00     0.057 C
ATOM     13  Br  UNL     1      -4.104   7.494  -2.325  1.00  0.00    -0.043 Br
ENDBRANCH   6  10
ENDBRANCH   3   5
ENDBRANCH   2   3
ENDBRANCH   1   2
BRANCH   1  14
ATOM     14  C   UNL     1      -1.574   0.924  -1.941  1.00  0.00     0.011 A
ATOM     15  C   UNL     1      -2.927   1.236  -2.081  1.00  0.00     0.055 A
ATOM     16  C   UNL     1      -1.007  -0.081  -2.723  1.00  0.00     0.009 A
ATOM     17  C   UNL     1      -3.711   0.542  -3.001  1.00  0.00     0.127 A
ATOM     18  C   UNL     1      -1.792  -0.776  -3.643  1.00  0.00     0.004 A
ATOM     19  C   UNL     1      -3.144  -0.465  -3.782  1.00  0.00     0.047 A
BRANCH  17  20
ATOM     20  O   UNL     1      -5.032   0.845  -3.137  1.00  0.00    -0.457 OA
BRANCH  20  21
ATOM     21  C   UNL     1      -5.369   2.173  -3.345  1.00  0.00     0.127 A
ATOM     22  C   UNL     1      -4.868   2.830  -4.453  1.00  0.00     0.047 A
ATOM     23  C   UNL     1      -6.198   2.808  -2.437  1.00  0.00     0.047 A
ATOM     24  C   UNL     1      -5.206   4.167  -4.663  1.00  0.00     0.004 A
ATOM     25  C   UNL     1      -6.536   4.144  -2.645  1.00  0.00     0.004 A
ATOM     26  C   UNL     1      -6.042   4.824  -3.758  1.00  0.00     0.000 A
ENDBRANCH  20  21
ENDBRANCH  17  20
ENDBRANCH   1  14
BRANCH   1  27
ATOM     27  C   UNL     1       0.138   0.775  -0.169  1.00  0.00     0.113 C
ATOM     28  N   UNL     1       0.817   0.067   0.452  1.00  0.00    -0.194 NA
ENDBRANCH   1  27
TORSDOF 8
ENDMDL
