MODEL 1
REMARK VINA RESULT:    -6.544      0.000      0.000
REMARK INTER + INTRA:         -12.310
REMARK INTER:                  -9.222
REMARK INTRA:                  -3.089
REMARK UNBOUND:                -3.089
REMARK SMILES CC1(C)[C@H](C=C(Cl)Cl)[C@H]1C(=O)OCc1cccc(Oc2ccccc2)c1
REMARK SMILES IDX 13 1 12 2 10 3 11 4 9 5 4 6 2 7 1 8 3 9 5 10 7 11 6 12 8 13
REMARK SMILES IDX 14 14 26 15 15 16 18 17 16 18 17 19 19 20 20 21 21 22 25 23
REMARK SMILES IDX 22 24 24 25 23 26
REMARK H PARENT
REMARK Flexibility Score: inf
ROOT
ATOM      1  C   UNL     1      -0.459   6.874  -3.179  1.00  0.00     0.268 C 
ENDROOT
BRANCH   1   2
ATOM      2  O   UNL     1      -0.285   5.482  -2.941  1.00  0.00    -0.461 OA
BRANCH   2   3
ATOM      3  C   UNL     1       0.081   5.138  -1.673  1.00  0.00     0.310 C 
ATOM      4  O   UNL     1       0.790   5.788  -0.917  1.00  0.00    -0.252 OA
BRANCH   3   5
ATOM      5  C   UNL     1      -0.493   3.830  -1.268  1.00  0.00     0.113 C 
ATOM      6  C   UNL     1      -1.666   3.302  -2.032  1.00  0.00     0.035 C 
ATOM      7  C   UNL     1      -1.838   3.771  -0.616  1.00  0.00    -0.014 C 
ATOM      8  C   UNL     1      -2.107   2.734   0.422  1.00  0.00     0.012 C 
ATOM      9  C   UNL     1      -2.518   5.070  -0.343  1.00  0.00     0.012 C 
BRANCH   6  10
ATOM     10  C   UNL     1      -1.701   1.882  -2.347  1.00  0.00     0.011 C 
ATOM     11  Cl  UNL     1       0.144   2.041  -4.304  1.00  0.00    -0.071 Cl
ATOM     12  C   UNL     1      -0.987   1.233  -3.281  1.00  0.00     0.103 C 
ATOM     13  Cl  UNL     1      -1.181  -0.472  -3.500  1.00  0.00    -0.071 Cl
ENDBRANCH   6  10
ENDBRANCH   3   5
ENDBRANCH   2   3
ENDBRANCH   1   2
BRANCH   1  14
ATOM     14  C   UNL     1      -1.903   7.223  -3.047  1.00  0.00    -0.007 A 
ATOM     15  C   UNL     1      -2.874   6.408  -3.628  1.00  0.00     0.054 A 
ATOM     16  C   UNL     1      -2.281   8.365  -2.340  1.00  0.00     0.007 A 
ATOM     17  C   UNL     1      -4.224   6.736  -3.504  1.00  0.00     0.127 A 
ATOM     18  C   UNL     1      -3.631   8.692  -2.216  1.00  0.00     0.004 A 
ATOM     19  C   UNL     1      -4.602   7.877  -2.798  1.00  0.00     0.047 A 
BRANCH  17  20
ATOM     20  O   UNL     1      -5.172   5.941  -4.071  1.00  0.00    -0.457 OA
BRANCH  20  21
ATOM     21  C   UNL     1      -5.190   4.604  -3.714  1.00  0.00     0.127 A 
ATOM     22  C   UNL     1      -4.823   3.651  -4.648  1.00  0.00     0.047 A 
ATOM     23  C   UNL     1      -5.575   4.253  -2.433  1.00  0.00     0.047 A 
ATOM     24  C   UNL     1      -4.841   2.305  -4.288  1.00  0.00     0.004 A 
ATOM     25  C   UNL     1      -5.593   2.905  -2.073  1.00  0.00     0.004 A 
ATOM     26  C   UNL     1      -5.225   1.931  -3.001  1.00  0.00     0.000 A 
ENDBRANCH  20  21
ENDBRANCH  17  20
ENDBRANCH   1  14
TORSDOF 7
ENDMDL
MODEL 2
REMARK VINA RESULT:    -6.448      3.380      5.423
REMARK INTER + INTRA:         -12.175
REMARK INTER:                 -10.045
REMARK INTRA:                  -2.131
REMARK UNBOUND:                -3.089
REMARK SMILES CC1(C)[C@H](C=C(Cl)Cl)[C@H]1C(=O)OCc1cccc(Oc2ccccc2)c1
REMARK SMILES IDX 13 1 12 2 10 3 11 4 9 5 4 6 2 7 1 8 3 9 5 10 7 11 6 12 8 13
REMARK SMILES IDX 14 14 26 15 15 16 18 17 16 18 17 19 19 20 20 21 21 22 25 23
REMARK SMILES IDX 22 24 24 25 23 26
REMARK H PARENT
REMARK Flexibility Score: inf
ROOT
ATOM      1  C   UNL     1      -2.722   3.721   0.085  1.00  0.00     0.268 C 
ENDROOT
BRANCH   1   2
ATOM      2  O   UNL     1      -2.318   5.055  -0.197  1.00  0.00    -0.461 OA
BRANCH   2   3
ATOM      3  C   UNL     1      -1.184   5.188  -0.944  1.00  0.00     0.310 C 
ATOM      4  O   UNL     1      -0.174   4.503  -0.863  1.00  0.00    -0.252 OA
BRANCH   3   5
ATOM      5  C   UNL     1      -1.293   6.300  -1.922  1.00  0.00     0.113 C 
ATOM      6  C   UNL     1      -2.643   6.630  -2.473  1.00  0.00     0.035 C 
ATOM      7  C   UNL     1      -1.601   6.009  -3.356  1.00  0.00    -0.014 C 
ATOM      8  C   UNL     1      -1.007   6.865  -4.424  1.00  0.00     0.012 C 
ATOM      9  C   UNL     1      -1.721   4.575  -3.749  1.00  0.00     0.012 C 
BRANCH   6  10
ATOM     10  C   UNL     1      -3.000   8.033  -2.629  1.00  0.00     0.011 C 
ATOM     11  Cl  UNL     1      -5.651   7.575  -2.780  1.00  0.00    -0.071 Cl
ATOM     12  C   UNL     1      -4.229   8.555  -2.767  1.00  0.00     0.103 C 
ATOM     13  Cl  UNL     1      -4.439  10.262  -2.943  1.00  0.00    -0.071 Cl
ENDBRANCH   6  10
ENDBRANCH   3   5
ENDBRANCH   2   3
ENDBRANCH   1   2
BRANCH   1  14
ATOM     14  C   UNL     1      -3.709   3.275  -0.940  1.00  0.00    -0.007 A 
ATOM     15  C   UNL     1      -4.798   4.086  -1.259  1.00  0.00     0.054 A 
ATOM     16  C   UNL     1      -3.542   2.047  -1.580  1.00  0.00     0.007 A 
ATOM     17  C   UNL     1      -5.721   3.667  -2.218  1.00  0.00     0.127 A 
ATOM     18  C   UNL     1      -4.465   1.629  -2.538  1.00  0.00     0.004 A 
ATOM     19  C   UNL     1      -5.554   2.440  -2.857  1.00  0.00     0.047 A 
BRANCH  17  20
ATOM     20  O   UNL     1      -6.784   4.458  -2.529  1.00  0.00    -0.457 OA
BRANCH  20  21
ATOM     21  C   UNL     1      -7.818   4.539  -1.612  1.00  0.00     0.127 A 
ATOM     22  C   UNL     1      -8.125   5.766  -1.049  1.00  0.00     0.047 A 
ATOM     23  C   UNL     1      -8.516   3.393  -1.280  1.00  0.00     0.047 A 
ATOM     24  C   UNL     1      -9.166   5.847  -0.126  1.00  0.00     0.004 A 
ATOM     25  C   UNL     1      -9.558   3.475  -0.355  1.00  0.00     0.004 A 
ATOM     26  C   UNL     1      -9.883   4.703   0.221  1.00  0.00     0.000 A 
ENDBRANCH  20  21
ENDBRANCH  17  20
ENDBRANCH   1  14
TORSDOF 7
ENDMDL
MODEL 3
REMARK VINA RESULT:    -6.172      2.739      5.348
REMARK INTER + INTRA:         -11.786
REMARK INTER:                  -8.816
REMARK INTRA:                  -2.971
REMARK UNBOUND:                -3.089
REMARK SMILES CC1(C)[C@H](C=C(Cl)Cl)[C@H]1C(=O)OCc1cccc(Oc2ccccc2)c1
REMARK SMILES IDX 13 1 12 2 10 3 11 4 9 5 4 6 2 7 1 8 3 9 5 10 7 11 6 12 8 13
REMARK SMILES IDX 14 14 26 15 15 16 18 17 16 18 17 19 19 20 20 21 21 22 25 23
REMARK SMILES IDX 22 24 24 25 23 26
REMARK H PARENT
REMARK Flexibility Score: inf
ROOT
ATOM      1  C   UNL     1      -0.626   1.160  -0.923  1.00  0.00     0.268 C 
ENDROOT
BRANCH   1   2
ATOM      2  O   UNL     1      -0.610   2.582  -0.925  1.00  0.00    -0.461 OA
BRANCH   2   3
ATOM      3  C   UNL     1       0.531   3.162  -1.398  1.00  0.00     0.310 C 
ATOM      4  O   UNL     1       1.670   2.730  -1.284  1.00  0.00    -0.252 OA
BRANCH   3   5
ATOM      5  C   UNL     1       0.252   4.438  -2.104  1.00  0.00     0.113 C 
ATOM      6  C   UNL     1      -1.157   4.727  -2.515  1.00  0.00     0.035 C 
ATOM      7  C   UNL     1      -0.117   4.427  -3.553  1.00  0.00    -0.014 C 
ATOM      8  C   UNL     1       0.321   5.552  -4.431  1.00  0.00     0.012 C 
ATOM      9  C   UNL     1      -0.118   3.106  -4.244  1.00  0.00     0.012 C 
BRANCH   6  10
ATOM     10  C   UNL     1      -1.661   6.083  -2.345  1.00  0.00     0.011 C 
ATOM     11  Cl  UNL     1      -2.696   5.635   0.102  1.00  0.00    -0.071 Cl
ATOM     12  C   UNL     1      -2.323   6.585  -1.291  1.00  0.00     0.103 C 
ATOM     13  Cl  UNL     1      -2.841   8.235  -1.289  1.00  0.00    -0.071 Cl
ENDBRANCH   6  10
ENDBRANCH   3   5
ENDBRANCH   2   3
ENDBRANCH   1   2
BRANCH   1  14
ATOM     14  C   UNL     1      -1.515   0.672  -2.017  1.00  0.00    -0.007 A 
ATOM     15  C   UNL     1      -2.754   1.277  -2.231  1.00  0.00     0.054 A 
ATOM     16  C   UNL     1      -1.106  -0.387  -2.827  1.00  0.00     0.007 A 
ATOM     17  C   UNL     1      -3.584   0.820  -3.254  1.00  0.00     0.127 A 
ATOM     18  C   UNL     1      -1.937  -0.844  -3.850  1.00  0.00     0.004 A 
ATOM     19  C   UNL     1      -3.176  -0.239  -4.063  1.00  0.00     0.047 A 
BRANCH  17  20
ATOM     20  O   UNL     1      -4.794   1.410  -3.463  1.00  0.00    -0.457 OA
BRANCH  20  21
ATOM     21  C   UNL     1      -4.831   2.791  -3.547  1.00  0.00     0.127 A 
ATOM     22  C   UNL     1      -5.537   3.504  -2.593  1.00  0.00     0.047 A 
ATOM     23  C   UNL     1      -4.165   3.422  -4.580  1.00  0.00     0.047 A 
ATOM     24  C   UNL     1      -5.575   4.895  -2.677  1.00  0.00     0.004 A 
ATOM     25  C   UNL     1      -4.203   4.815  -4.663  1.00  0.00     0.004 A 
ATOM     26  C   UNL     1      -4.908   5.551  -3.711  1.00  0.00     0.000 A 
ENDBRANCH  20  21
ENDBRANCH  17  20
ENDBRANCH   1  14
TORSDOF 7
ENDMDL
MODEL 4
REMARK VINA RESULT:    -6.154      2.348      4.537
REMARK INTER + INTRA:         -11.761
REMARK INTER:                  -9.621
REMARK INTRA:                  -2.140
REMARK UNBOUND:                -3.089
REMARK SMILES CC1(C)[C@H](C=C(Cl)Cl)[C@H]1C(=O)OCc1cccc(Oc2ccccc2)c1
REMARK SMILES IDX 13 1 12 2 10 3 11 4 9 5 4 6 2 7 1 8 3 9 5 10 7 11 6 12 8 13
REMARK SMILES IDX 14 14 26 15 15 16 18 17 16 18 17 19 19 20 20 21 21 22 25 23
REMARK SMILES IDX 22 24 24 25 23 26
REMARK H PARENT
REMARK Flexibility Score: inf
ROOT
ATOM      1  C   UNL     1      -4.561   1.841  -3.954  1.00  0.00     0.268 C 
ENDROOT
BRANCH   1   2
ATOM      2  O   UNL     1      -3.147   1.909  -3.819  1.00  0.00    -0.461 OA
BRANCH   2   3
ATOM      3  C   UNL     1      -2.635   1.398  -2.662  1.00  0.00     0.310 C 
ATOM      4  O   UNL     1      -3.006   0.385  -2.086  1.00  0.00    -0.252 OA
BRANCH   3   5
ATOM      5  C   UNL     1      -1.523   2.228  -2.135  1.00  0.00     0.113 C 
ATOM      6  C   UNL     1      -1.002   1.928  -0.765  1.00  0.00     0.035 C 
ATOM      7  C   UNL     1      -1.771   3.192  -1.019  1.00  0.00    -0.014 C 
ATOM      8  C   UNL     1      -1.015   4.477  -0.975  1.00  0.00     0.012 C 
ATOM      9  C   UNL     1      -3.174   3.316  -0.527  1.00  0.00     0.012 C 
BRANCH   6  10
ATOM     10  C   UNL     1       0.437   1.973  -0.550  1.00  0.00     0.011 C 
ATOM     11  Cl  UNL     1       0.545  -0.388   0.743  1.00  0.00    -0.071 Cl
ATOM     12  C   UNL     1       1.201   1.060   0.070  1.00  0.00     0.103 C 
ATOM     13  Cl  UNL     1       2.906   1.305   0.223  1.00  0.00    -0.071 Cl
ENDBRANCH   6  10
ENDBRANCH   3   5
ENDBRANCH   2   3
ENDBRANCH   1   2
BRANCH   1  14
ATOM     14  C   UNL     1      -5.171   3.096  -3.430  1.00  0.00    -0.007 A 
ATOM     15  C   UNL     1      -4.691   4.335  -3.855  1.00  0.00     0.054 A 
ATOM     16  C   UNL     1      -6.223   3.031  -2.516  1.00  0.00     0.007 A 
ATOM     17  C   UNL     1      -5.262   5.509  -3.364  1.00  0.00     0.127 A 
ATOM     18  C   UNL     1      -6.793   4.205  -2.025  1.00  0.00     0.004 A 
ATOM     19  C   UNL     1      -6.313   5.444  -2.450  1.00  0.00     0.047 A 
BRANCH  17  20
ATOM     20  O   UNL     1      -4.793   6.718  -3.778  1.00  0.00    -0.457 OA
BRANCH  20  21
ATOM     21  C   UNL     1      -3.550   7.119  -3.320  1.00  0.00     0.127 A 
ATOM     22  C   UNL     1      -2.459   7.025  -4.167  1.00  0.00     0.047 A 
ATOM     23  C   UNL     1      -3.429   7.601  -2.031  1.00  0.00     0.047 A 
ATOM     24  C   UNL     1      -1.206   7.428  -3.706  1.00  0.00     0.004 A 
ATOM     25  C   UNL     1      -2.175   8.005  -1.571  1.00  0.00     0.004 A 
ATOM     26  C   UNL     1      -1.064   7.919  -2.409  1.00  0.00     0.000 A 
ENDBRANCH  20  21
ENDBRANCH  17  20
ENDBRANCH   1  14
TORSDOF 7
ENDMDL
MODEL 5
REMARK VINA RESULT:    -5.994     13.928     17.427
REMARK INTER + INTRA:         -11.535
REMARK INTER:                 -10.552
REMARK INTRA:                  -0.984
REMARK UNBOUND:                -3.089
REMARK SMILES CC1(C)[C@H](C=C(Cl)Cl)[C@H]1C(=O)OCc1cccc(Oc2ccccc2)c1
REMARK SMILES IDX 13 1 12 2 10 3 11 4 9 5 4 6 2 7 1 8 3 9 5 10 7 11 6 12 8 13
REMARK SMILES IDX 14 14 26 15 15 16 18 17 16 18 17 19 19 20 20 21 21 22 25 23
REMARK SMILES IDX 22 24 24 25 23 26
REMARK H PARENT
REMARK Flexibility Score: inf
ROOT
ATOM      1  C   UNL     1       3.408  -4.602  10.144  1.00  0.00     0.268 C 
ENDROOT
BRANCH   1   2
ATOM      2  O   UNL     1       2.702  -5.767   9.735  1.00  0.00    -0.461 OA
BRANCH   2   3
ATOM      3  C   UNL     1       1.535  -5.549   9.061  1.00  0.00     0.310 C 
ATOM      4  O   UNL     1       0.647  -6.365   8.858  1.00  0.00    -0.252 OA
BRANCH   3   5
ATOM      5  C   UNL     1       1.433  -4.151   8.570  1.00  0.00     0.113 C 
ATOM      6  C   UNL     1       0.113  -3.676   8.051  1.00  0.00     0.035 C 
ATOM      7  C   UNL     1       1.262  -3.882   7.108  1.00  0.00    -0.014 C 
ATOM      8  C   UNL     1       1.884  -2.665   6.508  1.00  0.00     0.012 C 
ATOM      9  C   UNL     1       1.269  -5.060   6.194  1.00  0.00     0.012 C 
BRANCH   6  10
ATOM     10  C   UNL     1      -0.321  -2.331   8.402  1.00  0.00     0.011 C 
ATOM     11  Cl  UNL     1      -2.759  -3.098   9.256  1.00  0.00    -0.071 Cl
ATOM     12  C   UNL     1      -1.504  -1.961   8.916  1.00  0.00     0.103 C 
ATOM     13  Cl  UNL     1      -1.825  -0.297   9.261  1.00  0.00    -0.071 Cl
ENDBRANCH   6  10
ENDBRANCH   3   5
ENDBRANCH   2   3
ENDBRANCH   1   2
BRANCH   1  14
ATOM     14  C   UNL     1       4.875  -4.854  10.054  1.00  0.00    -0.007 A 
ATOM     15  C   UNL     1       5.345  -6.048   9.508  1.00  0.00     0.054 A 
ATOM     16  C   UNL     1       5.776  -3.895  10.515  1.00  0.00     0.007 A 
ATOM     17  C   UNL     1       6.717  -6.283   9.423  1.00  0.00     0.127 A 
ATOM     18  C   UNL     1       7.148  -4.130  10.431  1.00  0.00     0.004 A 
ATOM     19  C   UNL     1       7.618  -5.324   9.885  1.00  0.00     0.047 A 
BRANCH  17  20
ATOM     20  O   UNL     1       7.177  -7.449   8.891  1.00  0.00    -0.457 OA
BRANCH  20  21
ATOM     21  C   UNL     1       7.864  -7.382   7.691  1.00  0.00     0.127 A 
ATOM     22  C   UNL     1       7.281  -6.733   6.616  1.00  0.00     0.047 A 
ATOM     23  C   UNL     1       9.114  -7.965   7.596  1.00  0.00     0.047 A 
ATOM     24  C   UNL     1       7.973  -6.666   5.408  1.00  0.00     0.004 A 
ATOM     25  C   UNL     1       9.806  -7.897   6.386  1.00  0.00     0.004 A 
ATOM     26  C   UNL     1       9.235  -7.246   5.292  1.00  0.00     0.000 A 
ENDBRANCH  20  21
ENDBRANCH  17  20
ENDBRANCH   1  14
TORSDOF 7
ENDMDL
