MODEL 1
REMARK VINA RESULT:    -6.652      0.000      0.000
REMARK INTER + INTRA:         -12.460
REMARK INTER:                  -9.374
REMARK INTRA:                  -3.086
REMARK UNBOUND:                -3.086
REMARK SMILES CC1(C)[C@H](C=C(Cl)Cl)[C@H]1C(=O)OCc1cccc(Oc2ccccc2)c1
REMARK SMILES IDX 13 1 12 2 10 3 11 4 9 5 4 6 2 7 1 8 3 9 5 10 7 11 6 12 8 13
REMARK SMILES IDX 14 14 26 15 15 16 18 17 16 18 17 19 19 20 20 21 21 22 25 23
REMARK SMILES IDX 22 24 24 25 23 26
REMARK H PARENT
REMARK Flexibility Score: inf
ROOT
ATOM      1  C   UNL     1      -0.552   6.769  -3.236  1.00  0.00     0.268 C 
ENDROOT
BRANCH   1   2
ATOM      2  O   UNL     1      -0.397   5.388  -2.934  1.00  0.00    -0.461 OA
BRANCH   2   3
ATOM      3  C   UNL     1      -0.040   5.098  -1.649  1.00  0.00     0.310 C 
ATOM      4  O   UNL     1       0.645   5.790  -0.909  1.00  0.00    -0.252 OA
BRANCH   3   5
ATOM      5  C   UNL     1      -0.591   3.793  -1.204  1.00  0.00     0.113 C 
ATOM      6  C   UNL     1      -1.767   3.231  -1.939  1.00  0.00     0.035 C 
ATOM      7  C   UNL     1      -1.927   3.733  -0.533  1.00  0.00    -0.014 C 
ATOM      8  C   UNL     1      -2.169   2.720   0.534  1.00  0.00     0.012 C 
ATOM      9  C   UNL     1      -2.621   5.030  -0.283  1.00  0.00     0.012 C 
BRANCH   6  10
ATOM     10  C   UNL     1      -1.787   1.803  -2.218  1.00  0.00     0.011 C 
ATOM     11  Cl  UNL     1      -0.171   1.971  -4.367  1.00  0.00    -0.071 Cl
ATOM     12  C   UNL     1      -1.157   1.153  -3.209  1.00  0.00     0.103 C 
ATOM     13  Cl  UNL     1      -1.315  -0.561  -3.370  1.00  0.00    -0.071 Cl
ENDBRANCH   6  10
ENDBRANCH   3   5
ENDBRANCH   2   3
ENDBRANCH   1   2
BRANCH   1  14
ATOM     14  C   UNL     1      -1.986   7.151  -3.088  1.00  0.00    -0.007 A 
ATOM     15  C   UNL     1      -2.984   6.335  -3.622  1.00  0.00     0.054 A 
ATOM     16  C   UNL     1      -2.329   8.323  -2.414  1.00  0.00     0.007 A 
ATOM     17  C   UNL     1      -4.325   6.693  -3.482  1.00  0.00     0.127 A 
ATOM     18  C   UNL     1      -3.670   8.681  -2.275  1.00  0.00     0.004 A 
ATOM     19  C   UNL     1      -4.667   7.865  -2.809  1.00  0.00     0.047 A 
BRANCH  17  20
ATOM     20  O   UNL     1      -5.299   5.898  -4.003  1.00  0.00    -0.457 OA
BRANCH  20  21
ATOM     21  C   UNL     1      -5.266   4.550  -3.690  1.00  0.00     0.127 A 
ATOM     22  C   UNL     1      -4.883   3.642  -4.663  1.00  0.00     0.047 A 
ATOM     23  C   UNL     1      -5.616   4.144  -2.416  1.00  0.00     0.047 A 
ATOM     24  C   UNL     1      -4.850   2.284  -4.348  1.00  0.00     0.004 A 
ATOM     25  C   UNL     1      -5.581   2.785  -2.101  1.00  0.00     0.004 A 
ATOM     26  C   UNL     1      -5.198   1.855  -3.067  1.00  0.00     0.000 A 
ENDBRANCH  20  21
ENDBRANCH  17  20
ENDBRANCH   1  14
TORSDOF 7
ENDMDL
MODEL 2
REMARK VINA RESULT:    -6.370      2.673      5.975
REMARK INTER + INTRA:         -12.063
REMARK INTER:                  -9.089
REMARK INTRA:                  -2.974
REMARK UNBOUND:                -3.086
REMARK SMILES CC1(C)[C@H](C=C(Cl)Cl)[C@H]1C(=O)OCc1cccc(Oc2ccccc2)c1
REMARK SMILES IDX 13 1 12 2 10 3 11 4 9 5 4 6 2 7 1 8 3 9 5 10 7 11 6 12 8 13
REMARK SMILES IDX 14 14 26 15 15 16 18 17 16 18 17 19 19 20 20 21 21 22 25 23
REMARK SMILES IDX 22 24 24 25 23 26
REMARK H PARENT
REMARK Flexibility Score: inf
ROOT
ATOM      1  C   UNL     1      -5.126   2.885  -4.660  1.00  0.00     0.268 C 
ENDROOT
BRANCH   1   2
ATOM      2  O   UNL     1      -4.484   3.889  -3.884  1.00  0.00    -0.461 OA
BRANCH   2   3
ATOM      3  C   UNL     1      -5.032   4.132  -2.657  1.00  0.00     0.310 C 
ATOM      4  O   UNL     1      -6.179   3.891  -2.311  1.00  0.00    -0.252 OA
BRANCH   3   5
ATOM      5  C   UNL     1      -4.053   4.750  -1.727  1.00  0.00     0.113 C 
ATOM      6  C   UNL     1      -2.596   4.607  -2.034  1.00  0.00     0.035 C 
ATOM      7  C   UNL     1      -3.192   3.884  -0.862  1.00  0.00    -0.014 C 
ATOM      8  C   UNL     1      -2.812   4.356   0.501  1.00  0.00     0.012 C 
ATOM      9  C   UNL     1      -3.418   2.412  -0.935  1.00  0.00     0.012 C 
BRANCH   6  10
ATOM     10  C   UNL     1      -1.732   5.760  -1.827  1.00  0.00     0.011 C 
ATOM     11  Cl  UNL     1      -0.452   5.509  -4.184  1.00  0.00    -0.071 Cl
ATOM     12  C   UNL     1      -0.792   6.239  -2.657  1.00  0.00     0.103 C 
ATOM     13  Cl  UNL     1       0.136   7.631  -2.218  1.00  0.00    -0.071 Cl
ENDBRANCH   6  10
ENDBRANCH   3   5
ENDBRANCH   2   3
ENDBRANCH   1   2
BRANCH   1  14
ATOM     14  C   UNL     1      -4.387   1.597  -4.515  1.00  0.00    -0.007 A 
ATOM     15  C   UNL     1      -3.007   1.605  -4.311  1.00  0.00     0.054 A 
ATOM     16  C   UNL     1      -5.076   0.386  -4.581  1.00  0.00     0.007 A 
ATOM     17  C   UNL     1      -2.316   0.400  -4.175  1.00  0.00     0.127 A 
ATOM     18  C   UNL     1      -4.385  -0.817  -4.446  1.00  0.00     0.004 A 
ATOM     19  C   UNL     1      -3.005  -0.810  -4.243  1.00  0.00     0.047 A 
BRANCH  17  20
ATOM     20  O   UNL     1      -0.969   0.407  -3.977  1.00  0.00    -0.457 OA
BRANCH  20  21
ATOM     21  C   UNL     1      -0.501   0.845  -2.751  1.00  0.00     0.127 A 
ATOM     22  C   UNL     1      -0.554  -0.011  -1.664  1.00  0.00     0.047 A 
ATOM     23  C   UNL     1       0.007   2.126  -2.641  1.00  0.00     0.047 A 
ATOM     24  C   UNL     1      -0.082   0.430  -0.429  1.00  0.00     0.004 A 
ATOM     25  C   UNL     1       0.480   2.567  -1.404  1.00  0.00     0.004 A 
ATOM     26  C   UNL     1       0.435   1.718  -0.299  1.00  0.00     0.000 A 
ENDBRANCH  20  21
ENDBRANCH  17  20
ENDBRANCH   1  14
TORSDOF 7
ENDMDL
MODEL 3
REMARK VINA RESULT:    -6.370      2.270      4.461
REMARK INTER + INTRA:         -12.063
REMARK INTER:                  -9.886
REMARK INTRA:                  -2.177
REMARK UNBOUND:                -3.086
REMARK SMILES CC1(C)[C@H](C=C(Cl)Cl)[C@H]1C(=O)OCc1cccc(Oc2ccccc2)c1
REMARK SMILES IDX 13 1 12 2 10 3 11 4 9 5 4 6 2 7 1 8 3 9 5 10 7 11 6 12 8 13
REMARK SMILES IDX 14 14 26 15 15 16 18 17 16 18 17 19 19 20 20 21 21 22 25 23
REMARK SMILES IDX 22 24 24 25 23 26
REMARK H PARENT
REMARK Flexibility Score: inf
ROOT
ATOM      1  C   UNL     1      -4.450   1.989  -4.209  1.00  0.00     0.268 C 
ENDROOT
BRANCH   1   2
ATOM      2  O   UNL     1      -3.071   1.982  -3.859  1.00  0.00    -0.461 OA
BRANCH   2   3
ATOM      3  C   UNL     1      -2.781   1.557  -2.595  1.00  0.00     0.310 C 
ATOM      4  O   UNL     1      -3.337   0.655  -1.985  1.00  0.00    -0.252 OA
BRANCH   3   5
ATOM      5  C   UNL     1      -1.666   2.331  -1.994  1.00  0.00     0.113 C 
ATOM      6  C   UNL     1      -1.326   2.086  -0.558  1.00  0.00     0.035 C 
ATOM      7  C   UNL     1      -1.952   3.386  -0.972  1.00  0.00    -0.014 C 
ATOM      8  C   UNL     1      -1.097   4.607  -0.918  1.00  0.00     0.012 C 
ATOM      9  C   UNL     1      -3.384   3.654  -0.654  1.00  0.00     0.012 C 
BRANCH   6  10
ATOM     10  C   UNL     1       0.079   2.031  -0.182  1.00  0.00     0.011 C 
ATOM     11  Cl  UNL     1       0.221  -0.659  -0.232  1.00  0.00    -0.071 Cl
ATOM     12  C   UNL     1       0.840   0.938  -0.013  1.00  0.00     0.103 C 
ATOM     13  Cl  UNL     1       2.501   1.091   0.441  1.00  0.00    -0.071 Cl
ENDBRANCH   6  10
ENDBRANCH   3   5
ENDBRANCH   2   3
ENDBRANCH   1   2
BRANCH   1  14
ATOM     14  C   UNL     1      -5.099   3.206  -3.644  1.00  0.00    -0.007 A 
ATOM     15  C   UNL     1      -4.634   4.473  -3.998  1.00  0.00     0.054 A 
ATOM     16  C   UNL     1      -6.173   3.078  -2.762  1.00  0.00     0.007 A 
ATOM     17  C   UNL     1      -5.243   5.611  -3.469  1.00  0.00     0.127 A 
ATOM     18  C   UNL     1      -6.780   4.217  -2.233  1.00  0.00     0.004 A 
ATOM     19  C   UNL     1      -6.315   5.483  -2.587  1.00  0.00     0.047 A 
BRANCH  17  20
ATOM     20  O   UNL     1      -4.789   6.848  -3.814  1.00  0.00    -0.457 OA
BRANCH  20  21
ATOM     21  C   UNL     1      -3.568   7.252  -3.303  1.00  0.00     0.127 A 
ATOM     22  C   UNL     1      -2.446   7.190  -4.111  1.00  0.00     0.047 A 
ATOM     23  C   UNL     1      -3.500   7.707  -1.999  1.00  0.00     0.047 A 
ATOM     24  C   UNL     1      -1.216   7.597  -3.596  1.00  0.00     0.004 A 
ATOM     25  C   UNL     1      -2.269   8.114  -1.485  1.00  0.00     0.004 A 
ATOM     26  C   UNL     1      -1.127   8.060  -2.284  1.00  0.00     0.000 A 
ENDBRANCH  20  21
ENDBRANCH  17  20
ENDBRANCH   1  14
TORSDOF 7
ENDMDL
MODEL 4
REMARK VINA RESULT:    -6.358      2.700      5.233
REMARK INTER + INTRA:         -12.045
REMARK INTER:                  -9.057
REMARK INTRA:                  -2.988
REMARK UNBOUND:                -3.086
REMARK SMILES CC1(C)[C@H](C=C(Cl)Cl)[C@H]1C(=O)OCc1cccc(Oc2ccccc2)c1
REMARK SMILES IDX 13 1 12 2 10 3 11 4 9 5 4 6 2 7 1 8 3 9 5 10 7 11 6 12 8 13
REMARK SMILES IDX 14 14 26 15 15 16 18 17 16 18 17 19 19 20 20 21 21 22 25 23
REMARK SMILES IDX 22 24 24 25 23 26
REMARK H PARENT
REMARK Flexibility Score: inf
ROOT
ATOM      1  C   UNL     1      -0.431   1.137  -1.117  1.00  0.00     0.268 C 
ENDROOT
BRANCH   1   2
ATOM      2  O   UNL     1      -0.427   2.556  -1.030  1.00  0.00    -0.461 OA
BRANCH   2   3
ATOM      3  C   UNL     1       0.691   3.177  -1.507  1.00  0.00     0.310 C 
ATOM      4  O   UNL     1       1.843   2.778  -1.412  1.00  0.00    -0.252 OA
BRANCH   3   5
ATOM      5  C   UNL     1       0.365   4.454  -2.191  1.00  0.00     0.113 C 
ATOM      6  C   UNL     1      -1.055   4.702  -2.590  1.00  0.00     0.035 C 
ATOM      7  C   UNL     1      -0.011   4.453  -3.639  1.00  0.00    -0.014 C 
ATOM      8  C   UNL     1       0.384   5.605  -4.501  1.00  0.00     0.012 C 
ATOM      9  C   UNL     1       0.028   3.143  -4.351  1.00  0.00     0.012 C 
BRANCH   6  10
ATOM     10  C   UNL     1      -1.602   6.037  -2.397  1.00  0.00     0.011 C 
ATOM     11  Cl  UNL     1      -2.684   5.492   0.009  1.00  0.00    -0.071 Cl
ATOM     12  C   UNL     1      -2.305   6.490  -1.348  1.00  0.00     0.103 C 
ATOM     13  Cl  UNL     1      -2.872   8.124  -1.314  1.00  0.00    -0.071 Cl
ENDBRANCH   6  10
ENDBRANCH   3   5
ENDBRANCH   2   3
ENDBRANCH   1   2
BRANCH   1  14
ATOM     14  C   UNL     1      -1.489   0.701  -2.073  1.00  0.00    -0.007 A 
ATOM     15  C   UNL     1      -2.723   1.351  -2.090  1.00  0.00     0.054 A 
ATOM     16  C   UNL     1      -1.244  -0.355  -2.950  1.00  0.00     0.007 A 
ATOM     17  C   UNL     1      -3.713   0.943  -2.985  1.00  0.00     0.127 A 
ATOM     18  C   UNL     1      -2.234  -0.763  -3.844  1.00  0.00     0.004 A 
ATOM     19  C   UNL     1      -3.468  -0.113  -3.861  1.00  0.00     0.047 A 
BRANCH  17  20
ATOM     20  O   UNL     1      -4.918   1.577  -3.002  1.00  0.00    -0.457 OA
BRANCH  20  21
ATOM     21  C   UNL     1      -4.927   2.935  -3.267  1.00  0.00     0.127 A 
ATOM     22  C   UNL     1      -4.278   3.406  -4.396  1.00  0.00     0.047 A 
ATOM     23  C   UNL     1      -5.584   3.787  -2.399  1.00  0.00     0.047 A 
ATOM     24  C   UNL     1      -4.288   4.774  -4.663  1.00  0.00     0.004 A 
ATOM     25  C   UNL     1      -5.594   5.157  -2.668  1.00  0.00     0.004 A 
ATOM     26  C   UNL     1      -4.946   5.649  -3.800  1.00  0.00     0.000 A 
ENDBRANCH  20  21
ENDBRANCH  17  20
ENDBRANCH   1  14
TORSDOF 7
ENDMDL
MODEL 5
REMARK VINA RESULT:    -6.227     13.893     17.414
REMARK INTER + INTRA:         -11.861
REMARK INTER:                 -10.806
REMARK INTRA:                  -1.055
REMARK UNBOUND:                -3.086
REMARK SMILES CC1(C)[C@H](C=C(Cl)Cl)[C@H]1C(=O)OCc1cccc(Oc2ccccc2)c1
REMARK SMILES IDX 13 1 12 2 10 3 11 4 9 5 4 6 2 7 1 8 3 9 5 10 7 11 6 12 8 13
REMARK SMILES IDX 14 14 26 15 15 16 18 17 16 18 17 19 19 20 20 21 21 22 25 23
REMARK SMILES IDX 22 24 24 25 23 26
REMARK H PARENT
REMARK Flexibility Score: inf
ROOT
ATOM      1  C   UNL     1       3.273  -4.767  10.345  1.00  0.00     0.268 C 
ENDROOT
BRANCH   1   2
ATOM      2  O   UNL     1       2.584  -5.901   9.833  1.00  0.00    -0.461 OA
BRANCH   2   3
ATOM      3  C   UNL     1       1.454  -5.636   9.116  1.00  0.00     0.310 C 
ATOM      4  O   UNL     1       0.546  -6.418   8.872  1.00  0.00    -0.252 OA
BRANCH   3   5
ATOM      5  C   UNL     1       1.422  -4.233   8.632  1.00  0.00     0.113 C 
ATOM      6  C   UNL     1       0.157  -3.723   8.018  1.00  0.00     0.035 C 
ATOM      7  C   UNL     1       1.371  -3.948   7.165  1.00  0.00    -0.014 C 
ATOM      8  C   UNL     1       2.063  -2.741   6.626  1.00  0.00     0.012 C 
ATOM      9  C   UNL     1       1.422  -5.118   6.242  1.00  0.00     0.012 C 
BRANCH   6  10
ATOM     10  C   UNL     1      -0.274  -2.372   8.347  1.00  0.00     0.011 C 
ATOM     11  Cl  UNL     1      -2.715  -3.117   9.212  1.00  0.00    -0.071 Cl
ATOM     12  C   UNL     1      -1.456  -1.990   8.854  1.00  0.00     0.103 C 
ATOM     13  Cl  UNL     1      -1.772  -0.320   9.174  1.00  0.00    -0.071 Cl
ENDBRANCH   6  10
ENDBRANCH   3   5
ENDBRANCH   2   3
ENDBRANCH   1   2
BRANCH   1  14
ATOM     14  C   UNL     1       4.739  -4.941  10.138  1.00  0.00    -0.007 A 
ATOM     15  C   UNL     1       5.231  -6.133   9.606  1.00  0.00     0.054 A 
ATOM     16  C   UNL     1       5.618  -3.912  10.475  1.00  0.00     0.007 A 
ATOM     17  C   UNL     1       6.603  -6.295   9.412  1.00  0.00     0.127 A 
ATOM     18  C   UNL     1       6.990  -4.075  10.282  1.00  0.00     0.004 A 
ATOM     19  C   UNL     1       7.482  -5.267   9.750  1.00  0.00     0.047 A 
BRANCH  17  20
ATOM     20  O   UNL     1       7.084  -7.459   8.893  1.00  0.00    -0.457 OA
BRANCH  20  21
ATOM     21  C   UNL     1       7.797  -7.389   7.708  1.00  0.00     0.127 A 
ATOM     22  C   UNL     1       9.055  -7.963   7.645  1.00  0.00     0.047 A 
ATOM     23  C   UNL     1       7.235  -6.749   6.619  1.00  0.00     0.047 A 
ATOM     24  C   UNL     1       9.773  -7.893   6.452  1.00  0.00     0.004 A 
ATOM     25  C   UNL     1       7.955  -6.680   5.426  1.00  0.00     0.004 A 
ATOM     26  C   UNL     1       9.224  -7.253   5.342  1.00  0.00     0.000 A 
ENDBRANCH  20  21
ENDBRANCH  17  20
ENDBRANCH   1  14
TORSDOF 7
ENDMDL
