MODEL 1
REMARK VINA RESULT:    -6.628      0.000      0.000
REMARK INTER + INTRA:          -8.272
REMARK INTER:                  -7.790
REMARK INTRA:                  -0.482
REMARK UNBOUND:                -0.482
REMARK SMILES Clc1ccc(C(c2ccc(Cl)cc2)C(Cl)(Cl)Cl)cc1
REMARK SMILES IDX 6 1 14 2 15 3 16 4 17 5 5 6 4 7 18 8 3 9 19 10 2 11 1 12
REMARK SMILES IDX 7 13 8 14 13 15 9 16 12 17 10 18 11 19
REMARK H PARENT
REMARK Flexibility Score: inf
ROOT
ATOM      1  C   UNL     1      -0.070   1.459  -1.613  1.00  0.00     0.101 C 
ENDROOT
BRANCH   1   2
ATOM      2  C   UNL     1       0.310   0.853  -0.197  1.00  0.00     0.201 C 
ATOM      3  Cl  UNL     1      -0.697   1.456   1.158  1.00  0.00    -0.083 Cl
ATOM      4  Cl  UNL     1       2.023   1.298   0.205  1.00  0.00    -0.083 Cl
ATOM      5  Cl  UNL     1       0.251  -0.950  -0.188  1.00  0.00    -0.083 Cl
ENDBRANCH   1   2
BRANCH   1   6
ATOM      6  C   UNL     1      -0.006   2.945  -1.718  1.00  0.00    -0.036 A 
ATOM      7  C   UNL     1       0.872   3.543  -2.622  1.00  0.00     0.006 A 
ATOM      8  C   UNL     1      -0.823   3.738  -0.911  1.00  0.00     0.006 A 
ATOM      9  C   UNL     1       0.933   4.933  -2.719  1.00  0.00     0.021 A 
ATOM     10  C   UNL     1      -0.762   5.128  -1.008  1.00  0.00     0.021 A 
ATOM     11  C   UNL     1       0.115   5.725  -1.912  1.00  0.00     0.041 A 
ATOM     12  Cl  UNL     1       0.191   7.441  -2.032  1.00  0.00    -0.084 Cl
ENDBRANCH   1   6
BRANCH   1  13
ATOM     13  C   UNL     1      -1.323   0.863  -2.302  1.00  0.00    -0.036 A 
ATOM     14  C   UNL     1      -2.550   1.313  -1.899  1.00  0.00     0.006 A 
ATOM     15  C   UNL     1      -1.132  -0.080  -3.273  1.00  0.00     0.006 A 
ATOM     16  C   UNL     1      -3.677   0.775  -2.519  1.00  0.00     0.021 A 
ATOM     17  C   UNL     1      -2.260  -0.619  -3.891  1.00  0.00     0.021 A 
ATOM     18  C   UNL     1      -3.533  -0.191  -3.515  1.00  0.00     0.041 A 
ATOM     19  Cl  UNL     1      -4.925  -0.855  -4.279  1.00  0.00    -0.084 Cl
ENDBRANCH   1  13
TORSDOF 3
ENDMDL
MODEL 2
REMARK VINA RESULT:    -6.528      2.235      4.770
REMARK INTER + INTRA:          -8.155
REMARK INTER:                  -7.547
REMARK INTRA:                  -0.608
REMARK UNBOUND:                -0.482
REMARK SMILES Clc1ccc(C(c2ccc(Cl)cc2)C(Cl)(Cl)Cl)cc1
REMARK SMILES IDX 6 1 14 2 15 3 16 4 17 5 5 6 4 7 18 8 3 9 19 10 2 11 1 12
REMARK SMILES IDX 7 13 8 14 13 15 9 16 12 17 10 18 11 19
REMARK H PARENT
REMARK Flexibility Score: inf
ROOT
ATOM      1  C   UNL     1      -1.381   1.651  -1.436  1.00  0.00     0.101 C 
ENDROOT
BRANCH   1   2
ATOM      2  C   UNL     1      -1.758   0.679  -2.632  1.00  0.00     0.201 C 
ATOM      3  Cl  UNL     1      -1.172   1.222  -4.237  1.00  0.00    -0.083 Cl
ATOM      4  Cl  UNL     1      -3.563   0.560  -2.762  1.00  0.00    -0.083 Cl
ATOM      5  Cl  UNL     1      -1.169  -1.004  -2.354  1.00  0.00    -0.083 Cl
ENDBRANCH   1   2
BRANCH   1   6
ATOM      6  C   UNL     1      -1.912   3.041  -1.543  1.00  0.00    -0.036 A 
ATOM      7  C   UNL     1      -2.269   3.741  -0.391  1.00  0.00     0.006 A 
ATOM      8  C   UNL     1      -2.054   3.640  -2.795  1.00  0.00     0.006 A 
ATOM      9  C   UNL     1      -2.767   5.040  -0.491  1.00  0.00     0.021 A 
ATOM     10  C   UNL     1      -2.551   4.939  -2.895  1.00  0.00     0.021 A 
ATOM     11  C   UNL     1      -2.908   5.639  -1.743  1.00  0.00     0.041 A 
ATOM     12  Cl  UNL     1      -3.522   7.242  -1.866  1.00  0.00    -0.084 Cl
ENDBRANCH   1   6
BRANCH   1  13
ATOM     13  C   UNL     1       0.090   1.607  -0.951  1.00  0.00    -0.036 A 
ATOM     14  C   UNL     1       0.362   0.928   0.204  1.00  0.00     0.006 A 
ATOM     15  C   UNL     1       1.031   2.252  -1.704  1.00  0.00     0.006 A 
ATOM     16  C   UNL     1       1.686   0.890   0.641  1.00  0.00     0.021 A 
ATOM     17  C   UNL     1       2.355   2.214  -1.266  1.00  0.00     0.021 A 
ATOM     18  C   UNL     1       2.682   1.533  -0.094  1.00  0.00     0.041 A 
ATOM     19  Cl  UNL     1       4.316   1.487   0.446  1.00  0.00    -0.084 Cl
ENDBRANCH   1  13
TORSDOF 3
ENDMDL
MODEL 3
REMARK VINA RESULT:    -6.507      2.249      4.668
REMARK INTER + INTRA:          -8.130
REMARK INTER:                  -7.532
REMARK INTRA:                  -0.598
REMARK UNBOUND:                -0.482
REMARK SMILES Clc1ccc(C(c2ccc(Cl)cc2)C(Cl)(Cl)Cl)cc1
REMARK SMILES IDX 6 1 14 2 15 3 16 4 17 5 5 6 4 7 18 8 3 9 19 10 2 11 1 12
REMARK SMILES IDX 7 13 8 14 13 15 9 16 12 17 10 18 11 19
REMARK H PARENT
REMARK Flexibility Score: inf
ROOT
ATOM      1  C   UNL     1      -1.385   1.619  -1.483  1.00  0.00     0.101 C 
ENDROOT
BRANCH   1   2
ATOM      2  C   UNL     1      -1.725   0.643  -2.686  1.00  0.00     0.201 C 
ATOM      3  Cl  UNL     1      -3.479   0.450  -3.006  1.00  0.00    -0.083 Cl
ATOM      4  Cl  UNL     1      -1.091  -1.015  -2.312  1.00  0.00    -0.083 Cl
ATOM      5  Cl  UNL     1      -0.922   1.145  -4.222  1.00  0.00    -0.083 Cl
ENDBRANCH   1   2
BRANCH   1   6
ATOM      6  C   UNL     1      -1.926   3.003  -1.602  1.00  0.00    -0.036 A 
ATOM      7  C   UNL     1      -2.134   3.565  -2.861  1.00  0.00     0.006 A 
ATOM      8  C   UNL     1      -2.224   3.737  -0.453  1.00  0.00     0.006 A 
ATOM      9  C   UNL     1      -2.639   4.860  -2.973  1.00  0.00     0.021 A 
ATOM     10  C   UNL     1      -2.730   5.032  -0.564  1.00  0.00     0.021 A 
ATOM     11  C   UNL     1      -2.937   5.594  -1.823  1.00  0.00     0.041 A 
ATOM     12  Cl  UNL     1      -3.561   7.192  -1.961  1.00  0.00    -0.084 Cl
ENDBRANCH   1   6
BRANCH   1  13
ATOM     13  C   UNL     1       0.075   1.588  -0.965  1.00  0.00    -0.036 A 
ATOM     14  C   UNL     1       1.016   2.297  -1.659  1.00  0.00     0.006 A 
ATOM     15  C   UNL     1       0.341   0.853   0.157  1.00  0.00     0.006 A 
ATOM     16  C   UNL     1       2.330   2.268  -1.193  1.00  0.00     0.021 A 
ATOM     17  C   UNL     1       1.655   0.824   0.622  1.00  0.00     0.021 A 
ATOM     18  C   UNL     1       2.650   1.532  -0.053  1.00  0.00     0.041 A 
ATOM     19  Cl  UNL     1       4.272   1.495   0.522  1.00  0.00    -0.084 Cl
ENDBRANCH   1  13
TORSDOF 3
ENDMDL
MODEL 4
REMARK VINA RESULT:    -6.148      3.146      5.272
REMARK INTER + INTRA:          -7.708
REMARK INTER:                  -7.363
REMARK INTRA:                  -0.345
REMARK UNBOUND:                -0.482
REMARK SMILES Clc1ccc(C(c2ccc(Cl)cc2)C(Cl)(Cl)Cl)cc1
REMARK SMILES IDX 6 1 14 2 15 3 16 4 17 5 5 6 4 7 18 8 3 9 19 10 2 11 1 12
REMARK SMILES IDX 7 13 8 14 13 15 9 16 12 17 10 18 11 19
REMARK H PARENT
REMARK Flexibility Score: inf
ROOT
ATOM      1  C   UNL     1      -4.208   3.521  -1.396  1.00  0.00     0.101 C 
ENDROOT
BRANCH   1   2
ATOM      2  C   UNL     1      -4.976   2.631  -2.461  1.00  0.00     0.201 C 
ATOM      3  Cl  UNL     1      -4.477   2.918  -4.160  1.00  0.00    -0.083 Cl
ATOM      4  Cl  UNL     1      -6.751   3.001  -2.383  1.00  0.00    -0.083 Cl
ATOM      5  Cl  UNL     1      -4.822   0.867  -2.116  1.00  0.00    -0.083 Cl
ENDBRANCH   1   2
BRANCH   1   6
ATOM      6  C   UNL     1      -4.060   4.963  -1.746  1.00  0.00    -0.036 A 
ATOM      7  C   UNL     1      -5.028   5.593  -2.527  1.00  0.00     0.006 A 
ATOM      8  C   UNL     1      -2.952   5.681  -1.293  1.00  0.00     0.006 A 
ATOM      9  C   UNL     1      -4.889   6.942  -2.856  1.00  0.00     0.021 A 
ATOM     10  C   UNL     1      -2.814   7.029  -1.621  1.00  0.00     0.021 A 
ATOM     11  C   UNL     1      -3.782   7.660  -2.402  1.00  0.00     0.041 A 
ATOM     12  Cl  UNL     1      -3.610   9.324  -2.807  1.00  0.00    -0.084 Cl
ENDBRANCH   1   6
BRANCH   1  13
ATOM     13  C   UNL     1      -2.914   2.913  -0.798  1.00  0.00    -0.036 A 
ATOM     14  C   UNL     1      -2.865   2.716   0.554  1.00  0.00     0.006 A 
ATOM     15  C   UNL     1      -1.894   2.610  -1.656  1.00  0.00     0.006 A 
ATOM     16  C   UNL     1      -1.700   2.171   1.092  1.00  0.00     0.021 A 
ATOM     17  C   UNL     1      -0.728   2.065  -1.117  1.00  0.00     0.021 A 
ATOM     18  C   UNL     1      -0.631   1.845   0.256  1.00  0.00     0.041 A 
ATOM     19  Cl  UNL     1       0.807   1.173   0.921  1.00  0.00    -0.084 Cl
ENDBRANCH   1  13
TORSDOF 3
ENDMDL
MODEL 5
REMARK VINA RESULT:    -6.144      2.263      5.385
REMARK INTER + INTRA:          -7.703
REMARK INTER:                  -7.056
REMARK INTRA:                  -0.647
REMARK UNBOUND:                -0.482
REMARK SMILES Clc1ccc(C(c2ccc(Cl)cc2)C(Cl)(Cl)Cl)cc1
REMARK SMILES IDX 6 1 14 2 15 3 16 4 17 5 5 6 4 7 18 8 3 9 19 10 2 11 1 12
REMARK SMILES IDX 7 13 8 14 13 15 9 16 12 17 10 18 11 19
REMARK H PARENT
REMARK Flexibility Score: inf
ROOT
ATOM      1  C   UNL     1      -1.530   2.690  -2.450  1.00  0.00     0.101 C 
ENDROOT
BRANCH   1   2
ATOM      2  C   UNL     1      -2.714   1.654  -2.653  1.00  0.00     0.201 C 
ATOM      3  Cl  UNL     1      -2.198  -0.064  -2.661  1.00  0.00    -0.083 Cl
ATOM      4  Cl  UNL     1      -3.506   1.955  -4.258  1.00  0.00    -0.083 Cl
ATOM      5  Cl  UNL     1      -4.012   1.848  -1.415  1.00  0.00    -0.083 Cl
ENDBRANCH   1   2
BRANCH   1   6
ATOM      6  C   UNL     1      -0.442   2.254  -1.528  1.00  0.00    -0.036 A 
ATOM      7  C   UNL     1      -0.759   1.629  -0.322  1.00  0.00     0.006 A 
ATOM      8  C   UNL     1       0.893   2.473  -1.871  1.00  0.00     0.006 A 
ATOM      9  C   UNL     1       0.259   1.223   0.541  1.00  0.00     0.021 A 
ATOM     10  C   UNL     1       1.910   2.066  -1.008  1.00  0.00     0.021 A 
ATOM     11  C   UNL     1       1.594   1.441   0.198  1.00  0.00     0.041 A 
ATOM     12  Cl  UNL     1       2.850   0.940   1.263  1.00  0.00    -0.084 Cl
ENDBRANCH   1   6
BRANCH   1  13
ATOM     13  C   UNL     1      -1.940   4.169  -2.237  1.00  0.00    -0.036 A 
ATOM     14  C   UNL     1      -2.057   4.966  -3.341  1.00  0.00     0.006 A 
ATOM     15  C   UNL     1      -2.160   4.593  -0.956  1.00  0.00     0.006 A 
ATOM     16  C   UNL     1      -2.424   6.297  -3.148  1.00  0.00     0.021 A 
ATOM     17  C   UNL     1      -2.527   5.925  -0.764  1.00  0.00     0.021 A 
ATOM     18  C   UNL     1      -2.660   6.777  -1.860  1.00  0.00     0.041 A 
ATOM     19  Cl  UNL     1      -3.112   8.421  -1.622  1.00  0.00    -0.084 Cl
ENDBRANCH   1  13
TORSDOF 3
ENDMDL
