MODEL 1
REMARK VINA RESULT:    -6.840      0.000      0.000
REMARK INTER + INTRA:         -11.512
REMARK INTER:                 -10.038
REMARK INTRA:                  -1.473
REMARK UNBOUND:                -1.473
REMARK SMILES CC1(C)C(C=C(Br)Br)C1C(=O)OC(C#N)c1cccc(Oc2ccccc2)c1
REMARK SMILES IDX 13 1 12 2 10 3 11 4 9 5 4 6 2 7 1 8 3 9 5 10 7 11 6 12 8 13
REMARK SMILES IDX 16 14 28 15 17 16 20 17 18 18 19 19 21 20 22 21 23 22 27 23
REMARK SMILES IDX 24 24 26 25 25 26 14 27 15 28
REMARK H PARENT
REMARK Flexibility Score: inf
ROOT
ATOM      1  C   UNL     1      -4.295   1.484  -2.908  1.00  0.00     0.309 C
ENDROOT
BRANCH   1   2
ATOM      2  O   UNL     1      -2.961   1.590  -3.425  1.00  0.00    -0.442 OA
BRANCH   2   3
ATOM      3  C   UNL     1      -1.974   1.211  -2.569  1.00  0.00     0.311 C
ATOM      4  O   UNL     1      -1.746   0.081  -2.161  1.00  0.00    -0.252 OA
BRANCH   3   5
ATOM      5  C   UNL     1      -1.146   2.371  -2.149  1.00  0.00     0.113 C
ATOM      6  C   UNL     1      -0.266   2.217  -0.950  1.00  0.00     0.035 C
ATOM      7  C   UNL     1      -1.473   3.106  -0.889  1.00  0.00    -0.014 C
ATOM      8  C   UNL     1      -2.618   2.648  -0.048  1.00  0.00     0.012 C
ATOM      9  C   UNL     1      -1.302   4.589  -0.906  1.00  0.00     0.012 C
BRANCH   6  10
ATOM     10  C   UNL     1      -0.256   0.937  -0.259  1.00  0.00     0.001 C
ATOM     11  Br  UNL     1       2.415   1.207   0.677  1.00  0.00    -0.043 Br
ATOM     12  C   UNL     1       0.749   0.385   0.442  1.00  0.00     0.057 C
ATOM     13  Br  UNL     1       0.552  -1.290   1.261  1.00  0.00    -0.043 Br
ENDBRANCH   6  10
ENDBRANCH   3   5
ENDBRANCH   2   3
ENDBRANCH   1   2
BRANCH   1  14
ATOM     14  C   UNL     1      -4.963   2.815  -2.950  1.00  0.00     0.011 A
ATOM     15  C   UNL     1      -4.350   3.885  -3.603  1.00  0.00     0.055 A
ATOM     16  C   UNL     1      -6.204   2.991  -2.337  1.00  0.00     0.009 A
ATOM     17  C   UNL     1      -4.977   5.129  -3.642  1.00  0.00     0.127 A
ATOM     18  C   UNL     1      -6.830   4.237  -2.376  1.00  0.00     0.004 A
ATOM     19  C   UNL     1      -6.216   5.307  -3.028  1.00  0.00     0.047 A
BRANCH  17  20
ATOM     20  O   UNL     1      -4.378   6.174  -4.279  1.00  0.00    -0.457 OA
BRANCH  20  21
ATOM     21  C   UNL     1      -3.294   6.770  -3.656  1.00  0.00     0.127 A
ATOM     22  C   UNL     1      -3.481   7.410  -2.445  1.00  0.00     0.047 A
ATOM     23  C   UNL     1      -2.052   6.711  -4.263  1.00  0.00     0.047 A
ATOM     24  C   UNL     1      -2.389   8.012  -1.817  1.00  0.00     0.004 A
ATOM     25  C   UNL     1      -0.961   7.313  -3.637  1.00  0.00     0.004 A
ATOM     26  C   UNL     1      -1.129   7.962  -2.413  1.00  0.00     0.000 A
ENDBRANCH  20  21
ENDBRANCH  17  20
ENDBRANCH   1  14
BRANCH   1  27
ATOM     27  C   UNL     1      -5.032   0.453  -3.667  1.00  0.00     0.113 C
ATOM     28  N   UNL     1      -5.605  -0.364  -4.259  1.00  0.00    -0.194 NA
ENDBRANCH   1  27
TORSDOF 8
ENDMDL
MODEL 2
REMARK VINA RESULT:    -6.739      2.978      4.793
REMARK INTER + INTRA:         -11.364
REMARK INTER:                  -9.478
REMARK INTRA:                  -1.886
REMARK UNBOUND:                -1.473
REMARK SMILES CC1(C)C(C=C(Br)Br)C1C(=O)OC(C#N)c1cccc(Oc2ccccc2)c1
REMARK SMILES IDX 13 1 12 2 10 3 11 4 9 5 4 6 2 7 1 8 3 9 5 10 7 11 6 12 8 13
REMARK SMILES IDX 16 14 28 15 17 16 20 17 18 18 19 19 21 20 22 21 23 22 27 23
REMARK SMILES IDX 24 24 26 25 25 26 14 27 15 28
REMARK H PARENT
REMARK Flexibility Score: inf
ROOT
ATOM      1  C   UNL     1       0.608   3.129  -3.874  1.00  0.00     0.309 C
ENDROOT
BRANCH   1   2
ATOM      2  O   UNL     1       0.050   2.104  -3.041  1.00  0.00    -0.442 OA
BRANCH   2   3
ATOM      3  C   UNL     1      -0.908   1.336  -3.626  1.00  0.00     0.311 C
ATOM      4  O   UNL     1      -0.827   0.152  -3.919  1.00  0.00    -0.252 OA
BRANCH   3   5
ATOM      5  C   UNL     1      -2.141   2.121  -3.894  1.00  0.00     0.113 C
ATOM      6  C   UNL     1      -2.980   2.543  -2.730  1.00  0.00     0.035 C
ATOM      7  C   UNL     1      -3.484   1.499  -3.682  1.00  0.00    -0.014 C
ATOM      8  C   UNL     1      -3.573   0.097  -3.175  1.00  0.00     0.012 C
ATOM      9  C   UNL     1      -4.554   1.846  -4.663  1.00  0.00     0.012 C
BRANCH   6  10
ATOM     10  C   UNL     1      -2.543   2.175  -1.392  1.00  0.00     0.001 C
ATOM     11  Br  UNL     1      -2.690   4.823  -0.369  1.00  0.00    -0.043 Br
ATOM     12  C   UNL     1      -2.375   2.978  -0.328  1.00  0.00     0.057 C
ATOM     13  Br  UNL     1      -1.799   2.293   1.320  1.00  0.00    -0.043 Br
ENDBRANCH   6  10
ENDBRANCH   3   5
ENDBRANCH   2   3
ENDBRANCH   1   2
BRANCH   1  14
ATOM     14  C   UNL     1       0.404   4.464  -3.244  1.00  0.00     0.011 A
ATOM     15  C   UNL     1      -0.368   5.430  -3.889  1.00  0.00     0.055 A
ATOM     16  C   UNL     1       0.984   4.747  -2.007  1.00  0.00     0.009 A
ATOM     17  C   UNL     1      -0.559   6.679  -3.298  1.00  0.00     0.127 A
ATOM     18  C   UNL     1       0.793   5.996  -1.417  1.00  0.00     0.004 A
ATOM     19  C   UNL     1       0.022   6.962  -2.062  1.00  0.00     0.047 A
BRANCH  17  20
ATOM     20  O   UNL     1      -1.312   7.622  -3.928  1.00  0.00    -0.457 OA
BRANCH  20  21
ATOM     21  C   UNL     1      -2.629   7.768  -3.525  1.00  0.00     0.127 A
ATOM     22  C   UNL     1      -3.469   6.670  -3.555  1.00  0.00     0.047 A
ATOM     23  C   UNL     1      -3.072   9.010  -3.103  1.00  0.00     0.047 A
ATOM     24  C   UNL     1      -4.796   6.816  -3.150  1.00  0.00     0.004 A
ATOM     25  C   UNL     1      -4.398   9.156  -2.699  1.00  0.00     0.004 A
ATOM     26  C   UNL     1      -5.260   8.060  -2.721  1.00  0.00     0.000 A
ENDBRANCH  20  21
ENDBRANCH  17  20
ENDBRANCH   1  14
BRANCH   1  27
ATOM     27  C   UNL     1       2.032   2.832  -4.127  1.00  0.00     0.113 C
ATOM     28  N   UNL     1       3.153   2.598  -4.316  1.00  0.00    -0.194 NA
ENDBRANCH   1  27
TORSDOF 8
ENDMDL
MODEL 3
REMARK VINA RESULT:    -6.581      2.069      4.229
REMARK INTER + INTRA:         -11.132
REMARK INTER:                 -10.365
REMARK INTRA:                  -0.767
REMARK UNBOUND:                -1.473
REMARK SMILES CC1(C)C(C=C(Br)Br)C1C(=O)OC(C#N)c1cccc(Oc2ccccc2)c1
REMARK SMILES IDX 13 1 12 2 10 3 11 4 9 5 4 6 2 7 1 8 3 9 5 10 7 11 6 12 8 13
REMARK SMILES IDX 16 14 28 15 17 16 20 17 18 18 19 19 21 20 22 21 23 22 27 23
REMARK SMILES IDX 24 24 26 25 25 26 14 27 15 28
REMARK H PARENT
REMARK Flexibility Score: inf
ROOT
ATOM      1  C   UNL     1      -4.153   1.775  -2.489  1.00  0.00     0.309 C
ENDROOT
BRANCH   1   2
ATOM      2  O   UNL     1      -2.884   1.922  -3.142  1.00  0.00    -0.442 OA
BRANCH   2   3
ATOM      3  C   UNL     1      -1.827   1.370  -2.489  1.00  0.00     0.311 C
ATOM      4  O   UNL     1      -1.667   0.189  -2.211  1.00  0.00    -0.252 OA
BRANCH   3   5
ATOM      5  C   UNL     1      -0.821   2.399  -2.119  1.00  0.00     0.113 C
ATOM      6  C   UNL     1       0.112   2.106  -0.988  1.00  0.00     0.035 C
ATOM      7  C   UNL     1      -0.955   3.149  -0.833  1.00  0.00    -0.014 C
ATOM      8  C   UNL     1      -2.090   2.835   0.084  1.00  0.00     0.012 C
ATOM      9  C   UNL     1      -0.585   4.595  -0.850  1.00  0.00     0.012 C
BRANCH   6  10
ATOM     10  C   UNL     1      -0.005   0.823  -0.310  1.00  0.00     0.001 C
ATOM     11  Br  UNL     1       2.437   1.100   1.118  1.00  0.00    -0.043 Br
ATOM     12  C   UNL     1       0.850   0.273   0.569  1.00  0.00     0.057 C
ATOM     13  Br  UNL     1       0.507  -1.405   1.332  1.00  0.00    -0.043 Br
ENDBRANCH   6  10
ENDBRANCH   3   5
ENDBRANCH   2   3
ENDBRANCH   1   2
BRANCH   1  14
ATOM     14  C   UNL     1      -4.888   3.071  -2.509  1.00  0.00     0.011 A
ATOM     15  C   UNL     1      -6.282   3.084  -2.445  1.00  0.00     0.055 A
ATOM     16  C   UNL     1      -4.183   4.272  -2.589  1.00  0.00     0.009 A
ATOM     17  C   UNL     1      -6.969   4.297  -2.464  1.00  0.00     0.127 A
ATOM     18  C   UNL     1      -4.871   5.485  -2.608  1.00  0.00     0.004 A
ATOM     19  C   UNL     1      -6.264   5.498  -2.545  1.00  0.00     0.047 A
BRANCH  17  20
ATOM     20  O   UNL     1      -8.329   4.311  -2.403  1.00  0.00    -0.457 OA
BRANCH  20  21
ATOM     21  C   UNL     1      -8.916   4.382  -1.150  1.00  0.00     0.127 A
ATOM     22  C   UNL     1      -9.633   3.297  -0.680  1.00  0.00     0.047 A
ATOM     23  C   UNL     1      -8.770   5.536  -0.402  1.00  0.00     0.047 A
ATOM     24  C   UNL     1     -10.225   3.368   0.582  1.00  0.00     0.004 A
ATOM     25  C   UNL     1      -9.362   5.607   0.859  1.00  0.00     0.004 A
ATOM     26  C   UNL     1     -10.089   4.523   1.352  1.00  0.00     0.000 A
ENDBRANCH  20  21
ENDBRANCH  17  20
ENDBRANCH   1  14
BRANCH   1  27
ATOM     27  C   UNL     1      -4.910   0.682  -3.132  1.00  0.00     0.113 C
ATOM     28  N   UNL     1      -5.495  -0.182  -3.638  1.00  0.00    -0.194 NA
ENDBRANCH   1  27
TORSDOF 8
ENDMDL
MODEL 4
REMARK VINA RESULT:    -6.504      3.197      5.155
REMARK INTER + INTRA:         -11.018
REMARK INTER:                  -9.887
REMARK INTRA:                  -1.131
REMARK UNBOUND:                -1.473
REMARK SMILES CC1(C)C(C=C(Br)Br)C1C(=O)OC(C#N)c1cccc(Oc2ccccc2)c1
REMARK SMILES IDX 13 1 12 2 10 3 11 4 9 5 4 6 2 7 1 8 3 9 5 10 7 11 6 12 8 13
REMARK SMILES IDX 16 14 28 15 17 16 20 17 18 18 19 19 21 20 22 21 23 22 27 23
REMARK SMILES IDX 24 24 26 25 25 26 14 27 15 28
REMARK H PARENT
REMARK Flexibility Score: inf
ROOT
ATOM      1  C   UNL     1       0.007   1.144  -1.653  1.00  0.00     0.309 C
ENDROOT
BRANCH   1   2
ATOM      2  O   UNL     1      -1.399   0.861  -1.667  1.00  0.00    -0.442 OA
BRANCH   2   3
ATOM      3  C   UNL     1      -1.786  -0.119  -2.526  1.00  0.00     0.311 C
ATOM      4  O   UNL     1      -1.468  -1.300  -2.490  1.00  0.00    -0.252 OA
BRANCH   3   5
ATOM      5  C   UNL     1      -2.688   0.412  -3.581  1.00  0.00     0.113 C
ATOM      6  C   UNL     1      -3.501   1.628  -3.274  1.00  0.00     0.035 C
ATOM      7  C   UNL     1      -4.171   0.294  -3.427  1.00  0.00    -0.014 C
ATOM      8  C   UNL     1      -4.733  -0.335  -2.195  1.00  0.00     0.012 C
ATOM      9  C   UNL     1      -4.959  -0.002  -4.659  1.00  0.00     0.012 C
BRANCH   6  10
ATOM     10  C   UNL     1      -3.363   2.238  -1.960  1.00  0.00     0.001 C
ATOM     11  Br  UNL     1      -5.411   4.162  -2.388  1.00  0.00    -0.043 Br
ATOM     12  C   UNL     1      -4.058   3.270  -1.451  1.00  0.00     0.057 C
ATOM     13  Br  UNL     1      -3.718   3.906   0.279  1.00  0.00    -0.043 Br
ENDBRANCH   6  10
ENDBRANCH   3   5
ENDBRANCH   2   3
ENDBRANCH   1   2
BRANCH   1  14
ATOM     14  C   UNL     1       0.278   2.409  -2.393  1.00  0.00     0.011 A
ATOM     15  C   UNL     1       0.125   3.639  -1.751  1.00  0.00     0.055 A
ATOM     16  C   UNL     1       0.686   2.364  -3.726  1.00  0.00     0.009 A
ATOM     17  C   UNL     1       0.380   4.823  -2.443  1.00  0.00     0.127 A
ATOM     18  C   UNL     1       0.939   3.549  -4.418  1.00  0.00     0.004 A
ATOM     19  C   UNL     1       0.786   4.778  -3.777  1.00  0.00     0.047 A
BRANCH  17  20
ATOM     20  O   UNL     1       0.230   6.023  -1.818  1.00  0.00    -0.457 OA
BRANCH  20  21
ATOM     21  C   UNL     1      -0.874   6.790  -2.154  1.00  0.00     0.127 A
ATOM     22  C   UNL     1      -0.771   7.701  -3.189  1.00  0.00     0.047 A
ATOM     23  C   UNL     1      -2.050   6.624  -1.445  1.00  0.00     0.047 A
ATOM     24  C   UNL     1      -1.882   8.475  -3.527  1.00  0.00     0.004 A
ATOM     25  C   UNL     1      -3.161   7.397  -1.783  1.00  0.00     0.004 A
ATOM     26  C   UNL     1      -3.078   8.321  -2.824  1.00  0.00     0.000 A
ENDBRANCH  20  21
ENDBRANCH  17  20
ENDBRANCH   1  14
BRANCH   1  27
ATOM     27  C   UNL     1       0.483   1.189  -0.256  1.00  0.00     0.113 C
ATOM     28  N   UNL     1       0.865   1.217   0.840  1.00  0.00    -0.194 NA
ENDBRANCH   1  27
TORSDOF 8
ENDMDL
MODEL 5
REMARK VINA RESULT:    -6.447      2.338      3.138
REMARK INTER + INTRA:         -10.935
REMARK INTER:                  -9.721
REMARK INTRA:                  -1.214
REMARK UNBOUND:                -1.473
REMARK SMILES CC1(C)C(C=C(Br)Br)C1C(=O)OC(C#N)c1cccc(Oc2ccccc2)c1
REMARK SMILES IDX 13 1 12 2 10 3 11 4 9 5 4 6 2 7 1 8 3 9 5 10 7 11 6 12 8 13
REMARK SMILES IDX 16 14 28 15 17 16 20 17 18 18 19 19 21 20 22 21 23 22 27 23
REMARK SMILES IDX 24 24 26 25 25 26 14 27 15 28
REMARK H PARENT
REMARK Flexibility Score: inf
ROOT
ATOM      1  C   UNL     1      -2.615   1.194  -3.258  1.00  0.00     0.309 C
ENDROOT
BRANCH   1   2
ATOM      2  O   UNL     1      -1.474   1.874  -3.800  1.00  0.00    -0.442 OA
BRANCH   2   3
ATOM      3  C   UNL     1      -0.370   1.879  -3.006  1.00  0.00     0.311 C
ATOM      4  O   UNL     1       0.792   2.021  -3.361  1.00  0.00    -0.252 OA
BRANCH   3   5
ATOM      5  C   UNL     1      -0.728   1.685  -1.577  1.00  0.00     0.113 C
ATOM      6  C   UNL     1      -0.582   2.844  -0.645  1.00  0.00     0.035 C
ATOM      7  C   UNL     1       0.342   1.667  -0.533  1.00  0.00    -0.014 C
ATOM      8  C   UNL     1       1.764   1.873  -0.936  1.00  0.00     0.012 C
ATOM      9  C   UNL     1       0.175   0.699   0.591  1.00  0.00     0.012 C
BRANCH   6  10
ATOM     10  C   UNL     1      -0.105   4.109  -1.183  1.00  0.00     0.001 C
ATOM     11  Br  UNL     1      -2.531   5.500  -0.674  1.00  0.00    -0.043 Br
ATOM     12  C   UNL     1      -0.770   5.273  -1.267  1.00  0.00     0.057 C
ATOM     13  Br  UNL     1       0.038   6.798  -2.002  1.00  0.00    -0.043 Br
ENDBRANCH   6  10
ENDBRANCH   3   5
ENDBRANCH   2   3
ENDBRANCH   1   2
BRANCH   1  14
ATOM     14  C   UNL     1      -3.784   2.117  -3.216  1.00  0.00     0.011 A
ATOM     15  C   UNL     1      -3.761   3.307  -3.945  1.00  0.00     0.055 A
ATOM     16  C   UNL     1      -4.903   1.790  -2.450  1.00  0.00     0.009 A
ATOM     17  C   UNL     1      -4.856   4.169  -3.906  1.00  0.00     0.127 A
ATOM     18  C   UNL     1      -5.998   2.654  -2.411  1.00  0.00     0.004 A
ATOM     19  C   UNL     1      -5.974   3.844  -3.139  1.00  0.00     0.047 A
BRANCH  17  20
ATOM     20  O   UNL     1      -4.834   5.331  -4.616  1.00  0.00    -0.457 OA
BRANCH  20  21
ATOM     21  C   UNL     1      -4.381   6.470  -3.972  1.00  0.00     0.127 A
ATOM     22  C   UNL     1      -5.242   7.161  -3.141  1.00  0.00     0.047 A
ATOM     23  C   UNL     1      -3.077   6.887  -4.177  1.00  0.00     0.047 A
ATOM     24  C   UNL     1      -4.787   8.309  -2.491  1.00  0.00     0.004 A
ATOM     25  C   UNL     1      -2.622   8.035  -3.529  1.00  0.00     0.004 A
ATOM     26  C   UNL     1      -3.476   8.746  -2.685  1.00  0.00     0.000 A
ENDBRANCH  20  21
ENDBRANCH  17  20
ENDBRANCH   1  14
BRANCH   1  27
ATOM     27  C   UNL     1      -2.880  -0.024  -4.050  1.00  0.00     0.113 C
ATOM     28  N   UNL     1      -3.087  -0.988  -4.663  1.00  0.00    -0.194 NA
ENDBRANCH   1  27
TORSDOF 8
ENDMDL
