MODEL 1
REMARK VINA RESULT:    -6.443      0.000      0.000
REMARK INTER + INTRA:         -12.328
REMARK INTER:                  -9.079
REMARK INTRA:                  -3.249
REMARK UNBOUND:                -3.249
REMARK SMILES CC1(C)[C@H](C=C(Cl)Cl)[C@H]1C(=O)OCc1cccc(Oc2ccccc2)c1
REMARK SMILES IDX 13 1 12 2 10 3 11 4 9 5 4 6 2 7 1 8 3 9 5 10 7 11 6 12 8 13
REMARK SMILES IDX 14 14 26 15 15 16 18 17 16 18 17 19 19 20 20 21 21 22 25 23
REMARK SMILES IDX 22 24 24 25 23 26
REMARK H PARENT
REMARK Flexibility Score: inf
ROOT
ATOM      1  C   UNL     1      -0.255   6.552  -3.425  1.00  0.00     0.268 C 
ENDROOT
BRANCH   1   2
ATOM      2  O   UNL     1      -0.080   5.200  -3.021  1.00  0.00    -0.461 OA
BRANCH   2   3
ATOM      3  C   UNL     1       0.079   4.996  -1.681  1.00  0.00     0.310 C 
ATOM      4  O   UNL     1       0.645   5.740  -0.893  1.00  0.00    -0.252 OA
BRANCH   3   5
ATOM      5  C   UNL     1      -0.533   3.716  -1.241  1.00  0.00     0.113 C 
ATOM      6  C   UNL     1      -1.722   3.204  -1.990  1.00  0.00     0.035 C 
ATOM      7  C   UNL     1      -1.878   3.715  -0.588  1.00  0.00    -0.014 C 
ATOM      8  C   UNL     1      -2.176   2.715   0.478  1.00  0.00     0.012 C 
ATOM      9  C   UNL     1      -2.519   5.041  -0.349  1.00  0.00     0.012 C 
BRANCH   6  10
ATOM     10  C   UNL     1      -1.799   1.777  -2.267  1.00  0.00     0.011 C 
ATOM     11  Cl  UNL     1      -0.231   1.887  -4.455  1.00  0.00    -0.071 Cl
ATOM     12  C   UNL     1      -1.217   1.105  -3.273  1.00  0.00     0.103 C 
ATOM     13  Cl  UNL     1      -1.438  -0.603  -3.428  1.00  0.00    -0.071 Cl
ENDBRANCH   6  10
ENDBRANCH   3   5
ENDBRANCH   2   3
ENDBRANCH   1   2
BRANCH   1  14
ATOM     14  C   UNL     1      -1.683   6.943  -3.245  1.00  0.00    -0.007 A 
ATOM     15  C   UNL     1      -2.695   6.161  -3.802  1.00  0.00     0.054 A 
ATOM     16  C   UNL     1      -2.006   8.090  -2.520  1.00  0.00     0.007 A 
ATOM     17  C   UNL     1      -4.030   6.527  -3.634  1.00  0.00     0.127 A 
ATOM     18  C   UNL     1      -3.341   8.455  -2.352  1.00  0.00     0.004 A 
ATOM     19  C   UNL     1      -4.353   7.673  -2.909  1.00  0.00     0.047 A 
BRANCH  17  20
ATOM     20  O   UNL     1      -5.018   5.764  -4.177  1.00  0.00    -0.457 OA
BRANCH  20  21
ATOM     21  C   UNL     1      -5.117   4.447  -3.763  1.00  0.00     0.127 A 
ATOM     22  C   UNL     1      -5.489   4.178  -2.457  1.00  0.00     0.047 A 
ATOM     23  C   UNL     1      -4.843   3.434  -4.662  1.00  0.00     0.047 A 
ATOM     24  C   UNL     1      -5.589   2.852  -2.039  1.00  0.00     0.004 A 
ATOM     25  C   UNL     1      -4.943   2.107  -4.244  1.00  0.00     0.004 A 
ATOM     26  C   UNL     1      -5.317   1.816  -2.932  1.00  0.00     0.000 A 
ENDBRANCH  20  21
ENDBRANCH  17  20
ENDBRANCH   1  14
TORSDOF 7
ENDMDL
MODEL 2
REMARK VINA RESULT:    -6.128      2.358      4.692
REMARK INTER + INTRA:         -11.885
REMARK INTER:                  -9.823
REMARK INTRA:                  -2.062
REMARK UNBOUND:                -3.249
REMARK SMILES CC1(C)[C@H](C=C(Cl)Cl)[C@H]1C(=O)OCc1cccc(Oc2ccccc2)c1
REMARK SMILES IDX 13 1 12 2 10 3 11 4 9 5 4 6 2 7 1 8 3 9 5 10 7 11 6 12 8 13
REMARK SMILES IDX 14 14 26 15 15 16 18 17 16 18 17 19 19 20 20 21 21 22 25 23
REMARK SMILES IDX 22 24 24 25 23 26
REMARK H PARENT
REMARK Flexibility Score: inf
ROOT
ATOM      1  C   UNL     1      -4.718   1.685  -3.852  1.00  0.00     0.268 C 
ENDROOT
BRANCH   1   2
ATOM      2  O   UNL     1      -3.298   1.747  -3.901  1.00  0.00    -0.461 OA
BRANCH   2   3
ATOM      3  C   UNL     1      -2.642   1.155  -2.861  1.00  0.00     0.310 C 
ATOM      4  O   UNL     1      -2.838   0.031  -2.421  1.00  0.00    -0.252 OA
BRANCH   3   5
ATOM      5  C   UNL     1      -1.607   2.047  -2.281  1.00  0.00     0.113 C 
ATOM      6  C   UNL     1      -0.955   1.637  -0.998  1.00  0.00     0.035 C 
ATOM      7  C   UNL     1      -1.893   2.808  -1.025  1.00  0.00    -0.014 C 
ATOM      8  C   UNL     1      -1.301   4.165  -0.838  1.00  0.00     0.012 C 
ATOM      9  C   UNL     1      -3.261   2.677  -0.447  1.00  0.00     0.012 C 
BRANCH   6  10
ATOM     10  C   UNL     1       0.479   1.844  -0.856  1.00  0.00     0.011 C 
ATOM     11  Cl  UNL     1       0.841  -0.232   0.823  1.00  0.00    -0.071 Cl
ATOM     12  C   UNL     1       1.341   1.125  -0.120  1.00  0.00     0.103 C 
ATOM     13  Cl  UNL     1       3.019   1.541  -0.085  1.00  0.00    -0.071 Cl
ENDBRANCH   6  10
ENDBRANCH   3   5
ENDBRANCH   2   3
ENDBRANCH   1   2
BRANCH   1  14
ATOM     14  C   UNL     1      -5.257   2.999  -3.398  1.00  0.00    -0.007 A 
ATOM     15  C   UNL     1      -4.694   4.185  -3.871  1.00  0.00     0.054 A 
ATOM     16  C   UNL     1      -6.324   3.043  -2.500  1.00  0.00     0.007 A 
ATOM     17  C   UNL     1      -5.199   5.414  -3.447  1.00  0.00     0.127 A 
ATOM     18  C   UNL     1      -6.828   4.272  -2.075  1.00  0.00     0.004 A 
ATOM     19  C   UNL     1      -6.265   5.457  -2.549  1.00  0.00     0.047 A 
BRANCH  17  20
ATOM     20  O   UNL     1      -4.651   6.571  -3.908  1.00  0.00    -0.457 OA
BRANCH  20  21
ATOM     21  C   UNL     1      -3.436   6.966  -3.374  1.00  0.00     0.127 A 
ATOM     22  C   UNL     1      -2.280   6.761  -4.106  1.00  0.00     0.047 A 
ATOM     23  C   UNL     1      -3.410   7.556  -2.124  1.00  0.00     0.047 A 
ATOM     24  C   UNL     1      -1.057   7.159  -3.567  1.00  0.00     0.004 A 
ATOM     25  C   UNL     1      -2.185   7.955  -1.586  1.00  0.00     0.004 A 
ATOM     26  C   UNL     1      -1.009   7.757  -2.309  1.00  0.00     0.000 A 
ENDBRANCH  20  21
ENDBRANCH  17  20
ENDBRANCH   1  14
TORSDOF 7
ENDMDL
MODEL 3
REMARK VINA RESULT:    -5.992      2.718      5.337
REMARK INTER + INTRA:         -11.693
REMARK INTER:                  -8.847
REMARK INTRA:                  -2.846
REMARK UNBOUND:                -3.249
REMARK SMILES CC1(C)[C@H](C=C(Cl)Cl)[C@H]1C(=O)OCc1cccc(Oc2ccccc2)c1
REMARK SMILES IDX 13 1 12 2 10 3 11 4 9 5 4 6 2 7 1 8 3 9 5 10 7 11 6 12 8 13
REMARK SMILES IDX 14 14 26 15 15 16 18 17 16 18 17 19 19 20 20 21 21 22 25 23
REMARK SMILES IDX 22 24 24 25 23 26
REMARK H PARENT
REMARK Flexibility Score: inf
ROOT
ATOM      1  C   UNL     1      -0.616   1.471  -0.432  1.00  0.00     0.268 C 
ENDROOT
BRANCH   1   2
ATOM      2  O   UNL     1      -0.584   2.868  -0.697  1.00  0.00    -0.461 OA
BRANCH   2   3
ATOM      3  C   UNL     1       0.534   3.326  -1.332  1.00  0.00     0.310 C 
ATOM      4  O   UNL     1       1.649   2.825  -1.297  1.00  0.00    -0.252 OA
BRANCH   3   5
ATOM      5  C   UNL     1       0.259   4.558  -2.114  1.00  0.00     0.113 C 
ATOM      6  C   UNL     1      -1.147   4.821  -2.552  1.00  0.00     0.035 C 
ATOM      7  C   UNL     1      -0.099   4.460  -3.564  1.00  0.00    -0.014 C 
ATOM      8  C   UNL     1       0.345   5.530  -4.503  1.00  0.00     0.012 C 
ATOM      9  C   UNL     1      -0.095   3.100  -4.175  1.00  0.00     0.012 C 
BRANCH   6  10
ATOM     10  C   UNL     1      -1.651   6.184  -2.467  1.00  0.00     0.011 C 
ATOM     11  Cl  UNL     1      -2.800   5.849  -0.053  1.00  0.00    -0.071 Cl
ATOM     12  C   UNL     1      -2.359   6.734  -1.469  1.00  0.00     0.103 C 
ATOM     13  Cl  UNL     1      -2.869   8.384  -1.565  1.00  0.00    -0.071 Cl
ENDBRANCH   6  10
ENDBRANCH   3   5
ENDBRANCH   2   3
ENDBRANCH   1   2
BRANCH   1  14
ATOM     14  C   UNL     1      -1.262   0.764  -1.576  1.00  0.00    -0.007 A 
ATOM     15  C   UNL     1      -2.477   1.223  -2.083  1.00  0.00     0.054 A 
ATOM     16  C   UNL     1      -0.650  -0.356  -2.138  1.00  0.00     0.007 A 
ATOM     17  C   UNL     1      -3.080   0.562  -3.153  1.00  0.00     0.127 A 
ATOM     18  C   UNL     1      -1.253  -1.018  -3.207  1.00  0.00     0.004 A 
ATOM     19  C   UNL     1      -2.469  -0.558  -3.714  1.00  0.00     0.047 A 
BRANCH  17  20
ATOM     20  O   UNL     1      -4.267   1.010  -3.648  1.00  0.00    -0.457 OA
BRANCH  20  21
ATOM     21  C   UNL     1      -4.501   2.374  -3.623  1.00  0.00     0.127 A 
ATOM     22  C   UNL     1      -4.009   3.161  -4.650  1.00  0.00     0.047 A 
ATOM     23  C   UNL     1      -5.221   2.916  -2.574  1.00  0.00     0.047 A 
ATOM     24  C   UNL     1      -4.245   4.535  -4.625  1.00  0.00     0.004 A 
ATOM     25  C   UNL     1      -5.457   4.291  -2.550  1.00  0.00     0.004 A 
ATOM     26  C   UNL     1      -4.969   5.100  -3.576  1.00  0.00     0.000 A 
ENDBRANCH  20  21
ENDBRANCH  17  20
ENDBRANCH   1  14
TORSDOF 7
ENDMDL
MODEL 4
REMARK VINA RESULT:    -5.983      1.477      2.092
REMARK INTER + INTRA:         -11.680
REMARK INTER:                  -8.560
REMARK INTRA:                  -3.120
REMARK UNBOUND:                -3.249
REMARK SMILES CC1(C)[C@H](C=C(Cl)Cl)[C@H]1C(=O)OCc1cccc(Oc2ccccc2)c1
REMARK SMILES IDX 13 1 12 2 10 3 11 4 9 5 4 6 2 7 1 8 3 9 5 10 7 11 6 12 8 13
REMARK SMILES IDX 14 14 26 15 15 16 18 17 16 18 17 19 19 20 20 21 21 22 25 23
REMARK SMILES IDX 22 24 24 25 23 26
REMARK H PARENT
REMARK Flexibility Score: inf
ROOT
ATOM      1  C   UNL     1       0.588   4.668  -3.187  1.00  0.00     0.268 C 
ENDROOT
BRANCH   1   2
ATOM      2  O   UNL     1      -0.140   3.482  -2.892  1.00  0.00    -0.461 OA
BRANCH   2   3
ATOM      3  C   UNL     1      -0.024   3.017  -1.615  1.00  0.00     0.310 C 
ATOM      4  O   UNL     1       0.975   3.061  -0.911  1.00  0.00    -0.252 OA
BRANCH   3   5
ATOM      5  C   UNL     1      -1.292   2.418  -1.127  1.00  0.00     0.113 C 
ATOM      6  C   UNL     1      -2.552   2.719  -1.874  1.00  0.00     0.035 C 
ATOM      7  C   UNL     1      -2.338   3.285  -0.501  1.00  0.00    -0.014 C 
ATOM      8  C   UNL     1      -3.179   2.741   0.605  1.00  0.00     0.012 C 
ATOM      9  C   UNL     1      -2.013   4.732  -0.338  1.00  0.00     0.012 C 
BRANCH   6  10
ATOM     10  C   UNL     1      -3.504   1.638  -2.085  1.00  0.00     0.011 C 
ATOM     11  Cl  UNL     1      -2.218   0.621  -4.224  1.00  0.00    -0.071 Cl
ATOM     12  C   UNL     1      -3.471   0.693  -3.038  1.00  0.00     0.103 C 
ATOM     13  Cl  UNL     1      -4.710  -0.511  -3.118  1.00  0.00    -0.071 Cl
ENDBRANCH   6  10
ENDBRANCH   3   5
ENDBRANCH   2   3
ENDBRANCH   1   2
BRANCH   1  14
ATOM     14  C   UNL     1      -0.351   5.824  -3.252  1.00  0.00    -0.007 A 
ATOM     15  C   UNL     1      -1.619   5.662  -3.811  1.00  0.00     0.054 A 
ATOM     16  C   UNL     1       0.038   7.067  -2.754  1.00  0.00     0.007 A 
ATOM     17  C   UNL     1      -2.497   6.744  -3.871  1.00  0.00     0.127 A 
ATOM     18  C   UNL     1      -0.840   8.149  -2.815  1.00  0.00     0.004 A 
ATOM     19  C   UNL     1      -2.108   7.987  -3.373  1.00  0.00     0.047 A 
BRANCH  17  20
ATOM     20  O   UNL     1      -3.735   6.586  -4.416  1.00  0.00    -0.457 OA
BRANCH  20  21
ATOM     21  C   UNL     1      -4.567   5.630  -3.860  1.00  0.00     0.127 A 
ATOM     22  C   UNL     1      -5.012   4.584  -4.649  1.00  0.00     0.047 A 
ATOM     23  C   UNL     1      -4.932   5.744  -2.532  1.00  0.00     0.047 A 
ATOM     24  C   UNL     1      -5.850   3.621  -4.089  1.00  0.00     0.004 A 
ATOM     25  C   UNL     1      -5.771   4.780  -1.972  1.00  0.00     0.004 A 
ATOM     26  C   UNL     1      -6.229   3.718  -2.751  1.00  0.00     0.000 A 
ENDBRANCH  20  21
ENDBRANCH  17  20
ENDBRANCH   1  14
TORSDOF 7
ENDMDL
MODEL 5
REMARK VINA RESULT:    -5.927      2.816      6.028
REMARK INTER + INTRA:         -11.601
REMARK INTER:                  -8.733
REMARK INTRA:                  -2.868
REMARK UNBOUND:                -3.249
REMARK SMILES CC1(C)[C@H](C=C(Cl)Cl)[C@H]1C(=O)OCc1cccc(Oc2ccccc2)c1
REMARK SMILES IDX 13 1 12 2 10 3 11 4 9 5 4 6 2 7 1 8 3 9 5 10 7 11 6 12 8 13
REMARK SMILES IDX 14 14 26 15 15 16 18 17 16 18 17 19 19 20 20 21 21 22 25 23
REMARK SMILES IDX 22 24 24 25 23 26
REMARK H PARENT
REMARK Flexibility Score: inf
ROOT
ATOM      1  C   UNL     1      -5.533   2.424  -3.636  1.00  0.00     0.268 C 
ENDROOT
BRANCH   1   2
ATOM      2  O   UNL     1      -4.760   3.572  -3.309  1.00  0.00    -0.461 OA
BRANCH   2   3
ATOM      3  C   UNL     1      -5.128   4.233  -2.174  1.00  0.00     0.310 C 
ATOM      4  O   UNL     1      -6.249   4.277  -1.687  1.00  0.00    -0.252 OA
BRANCH   3   5
ATOM      5  C   UNL     1      -3.980   4.932  -1.544  1.00  0.00     0.113 C 
ATOM      6  C   UNL     1      -2.600   4.600  -2.018  1.00  0.00     0.035 C 
ATOM      7  C   UNL     1      -3.046   4.182  -0.647  1.00  0.00    -0.014 C 
ATOM      8  C   UNL     1      -2.428   4.879   0.518  1.00  0.00     0.012 C 
ATOM      9  C   UNL     1      -3.367   2.750  -0.376  1.00  0.00     0.012 C 
BRANCH   6  10
ATOM     10  C   UNL     1      -1.648   5.688  -2.183  1.00  0.00     0.011 C 
ATOM     11  Cl  UNL     1      -2.722   6.580  -4.488  1.00  0.00    -0.071 Cl
ATOM     12  C   UNL     1      -1.596   6.587  -3.179  1.00  0.00     0.103 C 
ATOM     13  Cl  UNL     1      -0.372   7.809  -3.191  1.00  0.00    -0.071 Cl
ENDBRANCH   6  10
ENDBRANCH   3   5
ENDBRANCH   2   3
ENDBRANCH   1   2
BRANCH   1  14
ATOM     14  C   UNL     1      -4.624   1.277  -3.920  1.00  0.00    -0.007 A 
ATOM     15  C   UNL     1      -3.242   1.446  -3.834  1.00  0.00     0.054 A 
ATOM     16  C   UNL     1      -5.155   0.036  -4.270  1.00  0.00     0.007 A 
ATOM     17  C   UNL     1      -2.391   0.372  -4.099  1.00  0.00     0.127 A 
ATOM     18  C   UNL     1      -4.305  -1.037  -4.536  1.00  0.00     0.004 A 
ATOM     19  C   UNL     1      -2.923  -0.868  -4.449  1.00  0.00     0.047 A 
BRANCH  17  20
ATOM     20  O   UNL     1      -1.042   0.536  -4.015  1.00  0.00    -0.457 OA
BRANCH  20  21
ATOM     21  C   UNL     1      -0.524   1.010  -2.822  1.00  0.00     0.127 A 
ATOM     22  C   UNL     1       0.088   2.251  -2.800  1.00  0.00     0.047 A 
ATOM     23  C   UNL     1      -0.629   0.232  -1.684  1.00  0.00     0.047 A 
ATOM     24  C   UNL     1       0.610   2.729  -1.599  1.00  0.00     0.004 A 
ATOM     25  C   UNL     1      -0.106   0.711  -0.483  1.00  0.00     0.004 A 
ATOM     26  C   UNL     1       0.513   1.960  -0.440  1.00  0.00     0.000 A 
ENDBRANCH  20  21
ENDBRANCH  17  20
ENDBRANCH   1  14
TORSDOF 7
ENDMDL
