MODEL 1
REMARK VINA RESULT:    -6.619      0.000      0.000
REMARK INTER + INTRA:          -8.265
REMARK INTER:                  -7.780
REMARK INTRA:                  -0.486
REMARK UNBOUND:                -0.486
REMARK SMILES Clc1ccc(C(c2ccc(Cl)cc2)C(Cl)(Cl)Cl)cc1
REMARK SMILES IDX 6 1 14 2 15 3 16 4 17 5 5 6 4 7 18 8 3 9 19 10 2 11 1 12
REMARK SMILES IDX 7 13 8 14 13 15 9 16 12 17 10 18 11 19
REMARK H PARENT
REMARK Flexibility Score: inf
ROOT
ATOM      1  C   UNL     1      -0.057   1.472  -1.588  1.00  0.00     0.101 C 
ENDROOT
BRANCH   1   2
ATOM      2  C   UNL     1       0.315   0.879  -0.166  1.00  0.00     0.201 C 
ATOM      3  Cl  UNL     1      -0.677   1.519   1.184  1.00  0.00    -0.083 Cl
ATOM      4  Cl  UNL     1       2.037   1.296   0.227  1.00  0.00    -0.083 Cl
ATOM      5  Cl  UNL     1       0.222  -0.923  -0.131  1.00  0.00    -0.083 Cl
ENDBRANCH   1   2
BRANCH   1   6
ATOM      6  C   UNL     1       0.024   2.956  -1.710  1.00  0.00    -0.036 A 
ATOM      7  C   UNL     1       0.902   3.534  -2.627  1.00  0.00     0.006 A 
ATOM      8  C   UNL     1      -0.777   3.768  -0.905  1.00  0.00     0.006 A 
ATOM      9  C   UNL     1       0.979   4.922  -2.740  1.00  0.00     0.021 A 
ATOM     10  C   UNL     1      -0.700   5.156  -1.019  1.00  0.00     0.021 A 
ATOM     11  C   UNL     1       0.178   5.733  -1.936  1.00  0.00     0.041 A 
ATOM     12  Cl  UNL     1       0.273   7.446  -2.075  1.00  0.00    -0.084 Cl
ENDBRANCH   1   6
BRANCH   1  13
ATOM     13  C   UNL     1      -1.317   0.883  -2.271  1.00  0.00    -0.036 A 
ATOM     14  C   UNL     1      -2.539   1.344  -1.868  1.00  0.00     0.006 A 
ATOM     15  C   UNL     1      -1.135  -0.066  -3.238  1.00  0.00     0.006 A 
ATOM     16  C   UNL     1      -3.672   0.812  -2.482  1.00  0.00     0.021 A 
ATOM     17  C   UNL     1      -2.269  -0.599  -3.851  1.00  0.00     0.021 A 
ATOM     18  C   UNL     1      -3.537  -0.159  -3.474  1.00  0.00     0.041 A 
ATOM     19  Cl  UNL     1      -4.936  -0.816  -4.231  1.00  0.00    -0.084 Cl
ENDBRANCH   1  13
TORSDOF 3
ENDMDL
MODEL 2
REMARK VINA RESULT:    -6.515      2.249      4.631
REMARK INTER + INTRA:          -8.143
REMARK INTER:                  -7.533
REMARK INTRA:                  -0.611
REMARK UNBOUND:                -0.486
REMARK SMILES Clc1ccc(C(c2ccc(Cl)cc2)C(Cl)(Cl)Cl)cc1
REMARK SMILES IDX 6 1 14 2 15 3 16 4 17 5 5 6 4 7 18 8 3 9 19 10 2 11 1 12
REMARK SMILES IDX 7 13 8 14 13 15 9 16 12 17 10 18 11 19
REMARK H PARENT
REMARK Flexibility Score: inf
ROOT
ATOM      1  C   UNL     1      -1.397   1.658  -1.457  1.00  0.00     0.101 C 
ENDROOT
BRANCH   1   2
ATOM      2  C   UNL     1      -1.774   0.683  -2.650  1.00  0.00     0.201 C 
ATOM      3  Cl  UNL     1      -3.536   0.534  -2.952  1.00  0.00    -0.083 Cl
ATOM      4  Cl  UNL     1      -1.181  -0.989  -2.268  1.00  0.00    -0.083 Cl
ATOM      5  Cl  UNL     1      -0.972   1.152  -4.196  1.00  0.00    -0.083 Cl
ENDBRANCH   1   2
BRANCH   1   6
ATOM      6  C   UNL     1      -1.922   3.049  -1.570  1.00  0.00    -0.036 A 
ATOM      7  C   UNL     1      -2.136   3.613  -2.827  1.00  0.00     0.006 A 
ATOM      8  C   UNL     1      -2.197   3.787  -0.418  1.00  0.00     0.006 A 
ATOM      9  C   UNL     1      -2.627   4.915  -2.933  1.00  0.00     0.021 A 
ATOM     10  C   UNL     1      -2.688   5.088  -0.524  1.00  0.00     0.021 A 
ATOM     11  C   UNL     1      -2.902   5.652  -1.781  1.00  0.00     0.041 A 
ATOM     12  Cl  UNL     1      -3.507   7.259  -1.911  1.00  0.00    -0.084 Cl
ENDBRANCH   1   6
BRANCH   1  13
ATOM     13  C   UNL     1       0.073   1.609  -0.968  1.00  0.00    -0.036 A 
ATOM     14  C   UNL     1       0.346   0.899   0.167  1.00  0.00     0.006 A 
ATOM     15  C   UNL     1       1.012   2.281  -1.699  1.00  0.00     0.006 A 
ATOM     16  C   UNL     1       1.669   0.857   0.607  1.00  0.00     0.021 A 
ATOM     17  C   UNL     1       2.335   2.240  -1.258  1.00  0.00     0.021 A 
ATOM     18  C   UNL     1       2.663   1.527  -0.105  1.00  0.00     0.041 A 
ATOM     19  Cl  UNL     1       4.296   1.476   0.439  1.00  0.00    -0.084 Cl
ENDBRANCH   1  13
TORSDOF 3
ENDMDL
MODEL 3
REMARK VINA RESULT:    -6.506      2.268      4.775
REMARK INTER + INTRA:          -8.132
REMARK INTER:                  -7.528
REMARK INTRA:                  -0.604
REMARK UNBOUND:                -0.486
REMARK SMILES Clc1ccc(C(c2ccc(Cl)cc2)C(Cl)(Cl)Cl)cc1
REMARK SMILES IDX 6 1 14 2 15 3 16 4 17 5 5 6 4 7 18 8 3 9 19 10 2 11 1 12
REMARK SMILES IDX 7 13 8 14 13 15 9 16 12 17 10 18 11 19
REMARK H PARENT
REMARK Flexibility Score: inf
ROOT
ATOM      1  C   UNL     1      -1.403   1.619  -1.473  1.00  0.00     0.101 C 
ENDROOT
BRANCH   1   2
ATOM      2  C   UNL     1      -1.761   0.634  -2.663  1.00  0.00     0.201 C 
ATOM      3  Cl  UNL     1      -3.520   0.416  -2.936  1.00  0.00    -0.083 Cl
ATOM      4  Cl  UNL     1      -1.095  -1.014  -2.298  1.00  0.00    -0.083 Cl
ATOM      5  Cl  UNL     1      -1.005   1.140  -4.221  1.00  0.00    -0.083 Cl
ENDBRANCH   1   2
BRANCH   1   6
ATOM      6  C   UNL     1      -1.955   3.000  -1.590  1.00  0.00    -0.036 A 
ATOM      7  C   UNL     1      -2.229   3.741  -0.441  1.00  0.00     0.006 A 
ATOM      8  C   UNL     1      -2.198   3.550  -2.849  1.00  0.00     0.006 A 
ATOM      9  C   UNL     1      -2.746   5.032  -0.550  1.00  0.00     0.021 A 
ATOM     10  C   UNL     1      -2.714   4.841  -2.958  1.00  0.00     0.021 A 
ATOM     11  C   UNL     1      -2.988   5.582  -1.809  1.00  0.00     0.041 A 
ATOM     12  Cl  UNL     1      -3.627   7.175  -1.944  1.00  0.00    -0.084 Cl
ENDBRANCH   1   6
BRANCH   1  13
ATOM     13  C   UNL     1       0.067   1.600  -0.983  1.00  0.00    -0.036 A 
ATOM     14  C   UNL     1       0.996   2.276  -1.722  1.00  0.00     0.006 A 
ATOM     15  C   UNL     1       0.350   0.908   0.161  1.00  0.00     0.006 A 
ATOM     16  C   UNL     1       2.319   2.257  -1.282  1.00  0.00     0.021 A 
ATOM     17  C   UNL     1       1.674   0.888   0.601  1.00  0.00     0.021 A 
ATOM     18  C   UNL     1       2.658   1.564  -0.120  1.00  0.00     0.041 A 
ATOM     19  Cl  UNL     1       4.291   1.540   0.424  1.00  0.00    -0.084 Cl
ENDBRANCH   1  13
TORSDOF 3
ENDMDL
MODEL 4
REMARK VINA RESULT:    -6.500      2.253      4.780
REMARK INTER + INTRA:          -8.126
REMARK INTER:                  -7.515
REMARK INTRA:                  -0.611
REMARK UNBOUND:                -0.486
REMARK SMILES Clc1ccc(C(c2ccc(Cl)cc2)C(Cl)(Cl)Cl)cc1
REMARK SMILES IDX 6 1 14 2 15 3 16 4 17 5 5 6 4 7 18 8 3 9 19 10 2 11 1 12
REMARK SMILES IDX 7 13 8 14 13 15 9 16 12 17 10 18 11 19
REMARK H PARENT
REMARK Flexibility Score: inf
ROOT
ATOM      1  C   UNL     1      -1.392   1.666  -1.493  1.00  0.00     0.101 C 
ENDROOT
BRANCH   1   2
ATOM      2  C   UNL     1      -1.742   0.706  -2.706  1.00  0.00     0.201 C 
ATOM      3  Cl  UNL     1      -1.062   1.229  -4.281  1.00  0.00    -0.083 Cl
ATOM      4  Cl  UNL     1      -3.542   0.647  -2.924  1.00  0.00    -0.083 Cl
ATOM      5  Cl  UNL     1      -1.223  -0.995  -2.403  1.00  0.00    -0.083 Cl
ENDBRANCH   1   2
BRANCH   1   6
ATOM      6  C   UNL     1      -1.916   3.058  -1.599  1.00  0.00    -0.036 A 
ATOM      7  C   UNL     1      -2.318   3.740  -0.451  1.00  0.00     0.006 A 
ATOM      8  C   UNL     1      -2.004   3.677  -2.846  1.00  0.00     0.006 A 
ATOM      9  C   UNL     1      -2.810   5.042  -0.550  1.00  0.00     0.021 A 
ATOM     10  C   UNL     1      -2.494   4.979  -2.945  1.00  0.00     0.021 A 
ATOM     11  C   UNL     1      -2.897   5.662  -1.797  1.00  0.00     0.041 A 
ATOM     12  Cl  UNL     1      -3.504   7.268  -1.920  1.00  0.00    -0.084 Cl
ENDBRANCH   1   6
BRANCH   1  13
ATOM     13  C   UNL     1       0.067   1.612  -0.972  1.00  0.00    -0.036 A 
ATOM     14  C   UNL     1       0.321   0.861   0.141  1.00  0.00     0.006 A 
ATOM     15  C   UNL     1       1.016   2.320  -1.655  1.00  0.00     0.006 A 
ATOM     16  C   UNL     1       1.634   0.814   0.610  1.00  0.00     0.021 A 
ATOM     17  C   UNL     1       2.328   2.274  -1.185  1.00  0.00     0.021 A 
ATOM     18  C   UNL     1       2.638   1.520  -0.053  1.00  0.00     0.041 A 
ATOM     19  Cl  UNL     1       4.258   1.463   0.526  1.00  0.00    -0.084 Cl
ENDBRANCH   1  13
TORSDOF 3
ENDMDL
MODEL 5
REMARK VINA RESULT:    -6.173      2.073      5.895
REMARK INTER + INTRA:          -7.742
REMARK INTER:                  -7.094
REMARK INTRA:                  -0.647
REMARK UNBOUND:                -0.486
REMARK SMILES Clc1ccc(C(c2ccc(Cl)cc2)C(Cl)(Cl)Cl)cc1
REMARK SMILES IDX 6 1 14 2 15 3 16 4 17 5 5 6 4 7 18 8 3 9 19 10 2 11 1 12
REMARK SMILES IDX 7 13 8 14 13 15 9 16 12 17 10 18 11 19
REMARK H PARENT
REMARK Flexibility Score: inf
ROOT
ATOM      1  C   UNL     1      -2.128   3.200  -2.057  1.00  0.00     0.101 C 
ENDROOT
BRANCH   1   2
ATOM      2  C   UNL     1      -2.899   4.381  -1.331  1.00  0.00     0.201 C 
ATOM      3  Cl  UNL     1      -3.805   3.881   0.134  1.00  0.00    -0.083 Cl
ATOM      4  Cl  UNL     1      -4.122   5.088  -2.469  1.00  0.00    -0.083 Cl
ATOM      5  Cl  UNL     1      -1.799   5.738  -0.880  1.00  0.00    -0.083 Cl
ENDBRANCH   1   2
BRANCH   1   6
ATOM      6  C   UNL     1      -2.990   2.163  -2.694  1.00  0.00    -0.036 A 
ATOM      7  C   UNL     1      -2.752   1.772  -4.012  1.00  0.00     0.006 A 
ATOM      8  C   UNL     1      -4.036   1.584  -1.974  1.00  0.00     0.006 A 
ATOM      9  C   UNL     1      -3.559   0.803  -4.609  1.00  0.00     0.021 A 
ATOM     10  C   UNL     1      -4.842   0.615  -2.570  1.00  0.00     0.021 A 
ATOM     11  C   UNL     1      -4.603   0.225  -3.887  1.00  0.00     0.041 A 
ATOM     12  Cl  UNL     1      -5.599  -0.971  -4.624  1.00  0.00    -0.084 Cl
ENDBRANCH   1   6
BRANCH   1  13
ATOM     13  C   UNL     1      -0.925   2.592  -1.293  1.00  0.00    -0.036 A 
ATOM     14  C   UNL     1       0.320   2.739  -1.839  1.00  0.00     0.006 A 
ATOM     15  C   UNL     1      -1.176   1.942  -0.117  1.00  0.00     0.006 A 
ATOM     16  C   UNL     1       1.402   2.191  -1.153  1.00  0.00     0.021 A 
ATOM     17  C   UNL     1      -0.093   1.393   0.569  1.00  0.00     0.021 A 
ATOM     18  C   UNL     1       1.197   1.518   0.052  1.00  0.00     0.041 A 
ATOM     19  Cl  UNL     1       2.533   0.840   0.899  1.00  0.00    -0.084 Cl
ENDBRANCH   1  13
TORSDOF 3
ENDMDL
