MODEL 1
REMARK VINA RESULT:    -6.611      0.000      0.000
REMARK INTER + INTRA:         -12.441
REMARK INTER:                  -9.316
REMARK INTRA:                  -3.125
REMARK UNBOUND:                -3.125
REMARK SMILES CC1(C)[C@H](C=C(Cl)Cl)[C@H]1C(=O)OCc1cccc(Oc2ccccc2)c1
REMARK SMILES IDX 13 1 12 2 10 3 11 4 9 5 4 6 2 7 1 8 3 9 5 10 7 11 6 12 8 13
REMARK SMILES IDX 14 14 26 15 15 16 18 17 16 18 17 19 19 20 20 21 21 22 25 23
REMARK SMILES IDX 22 24 24 25 23 26
REMARK H PARENT
REMARK Flexibility Score: inf
ROOT
ATOM      1  C   UNL     1      -0.562   6.911  -3.227  1.00  0.00     0.268 C 
ENDROOT
BRANCH   1   2
ATOM      2  O   UNL     1      -0.367   5.527  -2.968  1.00  0.00    -0.461 OA
BRANCH   2   3
ATOM      3  C   UNL     1      -0.060   5.201  -1.679  1.00  0.00     0.310 C 
ATOM      4  O   UNL     1       0.586   5.876  -0.890  1.00  0.00    -0.252 OA
BRANCH   3   5
ATOM      5  C   UNL     1      -0.614   3.877  -1.297  1.00  0.00     0.113 C 
ATOM      6  C   UNL     1      -1.795   3.357  -2.054  1.00  0.00     0.035 C 
ATOM      7  C   UNL     1      -1.947   3.789  -0.625  1.00  0.00    -0.014 C 
ATOM      8  C   UNL     1      -2.188   2.724   0.392  1.00  0.00     0.012 C 
ATOM      9  C   UNL     1      -2.635   5.074  -0.308  1.00  0.00     0.012 C 
BRANCH   6  10
ATOM     10  C   UNL     1      -1.821   1.944  -2.404  1.00  0.00     0.011 C 
ATOM     11  Cl  UNL     1       0.267   2.093  -4.100  1.00  0.00    -0.071 Cl
ATOM     12  C   UNL     1      -1.007   1.295  -3.251  1.00  0.00     0.103 C 
ATOM     13  Cl  UNL     1      -1.209  -0.399  -3.532  1.00  0.00    -0.071 Cl
ENDBRANCH   6  10
ENDBRANCH   3   5
ENDBRANCH   2   3
ENDBRANCH   1   2
BRANCH   1  14
ATOM     14  C   UNL     1      -2.009   7.243  -3.086  1.00  0.00    -0.007 A 
ATOM     15  C   UNL     1      -2.973   6.424  -3.674  1.00  0.00     0.054 A 
ATOM     16  C   UNL     1      -2.399   8.372  -2.365  1.00  0.00     0.007 A 
ATOM     17  C   UNL     1      -4.326   6.734  -3.542  1.00  0.00     0.127 A 
ATOM     18  C   UNL     1      -3.752   8.682  -2.233  1.00  0.00     0.004 A 
ATOM     19  C   UNL     1      -4.715   7.863  -2.821  1.00  0.00     0.047 A 
BRANCH  17  20
ATOM     20  O   UNL     1      -5.267   5.935  -4.116  1.00  0.00    -0.457 OA
BRANCH  20  21
ATOM     21  C   UNL     1      -5.307   4.607  -3.729  1.00  0.00     0.127 A 
ATOM     22  C   UNL     1      -5.025   3.625  -4.663  1.00  0.00     0.047 A 
ATOM     23  C   UNL     1      -5.628   4.294  -2.421  1.00  0.00     0.047 A 
ATOM     24  C   UNL     1      -5.065   2.287  -4.274  1.00  0.00     0.004 A 
ATOM     25  C   UNL     1      -5.667   2.955  -2.032  1.00  0.00     0.004 A 
ATOM     26  C   UNL     1      -5.385   1.951  -2.959  1.00  0.00     0.000 A 
ENDBRANCH  20  21
ENDBRANCH  17  20
ENDBRANCH   1  14
TORSDOF 7
ENDMDL
MODEL 2
REMARK VINA RESULT:    -6.385      2.840      6.047
REMARK INTER + INTRA:         -12.122
REMARK INTER:                  -9.228
REMARK INTRA:                  -2.895
REMARK UNBOUND:                -3.125
REMARK SMILES CC1(C)[C@H](C=C(Cl)Cl)[C@H]1C(=O)OCc1cccc(Oc2ccccc2)c1
REMARK SMILES IDX 13 1 12 2 10 3 11 4 9 5 4 6 2 7 1 8 3 9 5 10 7 11 6 12 8 13
REMARK SMILES IDX 14 14 26 15 15 16 18 17 16 18 17 19 19 20 20 21 21 22 25 23
REMARK SMILES IDX 22 24 24 25 23 26
REMARK H PARENT
REMARK Flexibility Score: inf
ROOT
ATOM      1  C   UNL     1      -5.145   2.855  -4.614  1.00  0.00     0.268 C 
ENDROOT
BRANCH   1   2
ATOM      2  O   UNL     1      -4.447   3.882  -3.921  1.00  0.00    -0.461 OA
BRANCH   2   3
ATOM      3  C   UNL     1      -4.920   4.189  -2.679  1.00  0.00     0.310 C 
ATOM      4  O   UNL     1      -6.062   4.023  -2.273  1.00  0.00    -0.252 OA
BRANCH   3   5
ATOM      5  C   UNL     1      -3.865   4.775  -1.814  1.00  0.00     0.113 C 
ATOM      6  C   UNL     1      -2.435   4.501  -2.156  1.00  0.00     0.035 C 
ATOM      7  C   UNL     1      -3.046   3.891  -0.928  1.00  0.00    -0.014 C 
ATOM      8  C   UNL     1      -2.584   4.402   0.395  1.00  0.00     0.012 C 
ATOM      9  C   UNL     1      -3.388   2.439  -0.913  1.00  0.00     0.012 C 
BRANCH   6  10
ATOM     10  C   UNL     1      -1.477   5.591  -2.038  1.00  0.00     0.011 C 
ATOM     11  Cl  UNL     1      -2.209   6.783  -4.342  1.00  0.00    -0.071 Cl
ATOM     12  C   UNL     1      -1.287   6.609  -2.892  1.00  0.00     0.103 C 
ATOM     13  Cl  UNL     1      -0.085   7.810  -2.567  1.00  0.00    -0.071 Cl
ENDBRANCH   6  10
ENDBRANCH   3   5
ENDBRANCH   2   3
ENDBRANCH   1   2
BRANCH   1  14
ATOM     14  C   UNL     1      -4.414   1.565  -4.455  1.00  0.00    -0.007 A 
ATOM     15  C   UNL     1      -3.030   1.563  -4.285  1.00  0.00     0.054 A 
ATOM     16  C   UNL     1      -5.116   0.359  -4.474  1.00  0.00     0.007 A 
ATOM     17  C   UNL     1      -2.347   0.356  -4.136  1.00  0.00     0.127 A 
ATOM     18  C   UNL     1      -4.433  -0.847  -4.325  1.00  0.00     0.004 A 
ATOM     19  C   UNL     1      -3.049  -0.849  -4.156  1.00  0.00     0.047 A 
BRANCH  17  20
ATOM     20  O   UNL     1      -0.996   0.354  -3.971  1.00  0.00    -0.457 OA
BRANCH  20  21
ATOM     21  C   UNL     1      -0.496   0.754  -2.744  1.00  0.00     0.127 A 
ATOM     22  C   UNL     1       0.066   2.013  -2.623  1.00  0.00     0.047 A 
ATOM     23  C   UNL     1      -0.570  -0.114  -1.670  1.00  0.00     0.047 A 
ATOM     24  C   UNL     1       0.569   2.415  -1.386  1.00  0.00     0.004 A 
ATOM     25  C   UNL     1      -0.067   0.289  -0.433  1.00  0.00     0.004 A 
ATOM     26  C   UNL     1       0.502   1.554  -0.291  1.00  0.00     0.000 A 
ENDBRANCH  20  21
ENDBRANCH  17  20
ENDBRANCH   1  14
TORSDOF 7
ENDMDL
MODEL 3
REMARK VINA RESULT:    -6.341      2.275      4.575
REMARK INTER + INTRA:         -12.061
REMARK INTER:                  -9.832
REMARK INTRA:                  -2.229
REMARK UNBOUND:                -3.125
REMARK SMILES CC1(C)[C@H](C=C(Cl)Cl)[C@H]1C(=O)OCc1cccc(Oc2ccccc2)c1
REMARK SMILES IDX 13 1 12 2 10 3 11 4 9 5 4 6 2 7 1 8 3 9 5 10 7 11 6 12 8 13
REMARK SMILES IDX 14 14 26 15 15 16 18 17 16 18 17 19 19 20 20 21 21 22 25 23
REMARK SMILES IDX 22 24 24 25 23 26
REMARK H PARENT
REMARK Flexibility Score: inf
ROOT
ATOM      1  C   UNL     1      -4.376   1.965  -4.218  1.00  0.00     0.268 C 
ENDROOT
BRANCH   1   2
ATOM      2  O   UNL     1      -2.999   1.978  -3.864  1.00  0.00    -0.461 OA
BRANCH   2   3
ATOM      3  C   UNL     1      -2.704   1.534  -2.608  1.00  0.00     0.310 C 
ATOM      4  O   UNL     1      -3.254   0.619  -2.010  1.00  0.00    -0.252 OA
BRANCH   3   5
ATOM      5  C   UNL     1      -1.591   2.303  -1.996  1.00  0.00     0.113 C 
ATOM      6  C   UNL     1      -1.287   2.082  -0.548  1.00  0.00     0.035 C 
ATOM      7  C   UNL     1      -1.883   3.382  -1.002  1.00  0.00    -0.014 C 
ATOM      8  C   UNL     1      -1.011   4.591  -0.952  1.00  0.00     0.012 C 
ATOM      9  C   UNL     1      -3.318   3.677  -0.722  1.00  0.00     0.012 C 
BRANCH   6  10
ATOM     10  C   UNL     1       0.109   2.013  -0.140  1.00  0.00     0.011 C 
ATOM     11  Cl  UNL     1       0.234  -0.677  -0.216  1.00  0.00    -0.071 Cl
ATOM     12  C   UNL     1       0.858   0.914   0.035  1.00  0.00     0.103 C 
ATOM     13  Cl  UNL     1       2.509   1.050   0.531  1.00  0.00    -0.071 Cl
ENDBRANCH   6  10
ENDBRANCH   3   5
ENDBRANCH   2   3
ENDBRANCH   1   2
BRANCH   1  14
ATOM     14  C   UNL     1      -5.038   3.189  -3.683  1.00  0.00    -0.007 A 
ATOM     15  C   UNL     1      -4.555   4.451  -4.030  1.00  0.00     0.054 A 
ATOM     16  C   UNL     1      -6.141   3.073  -2.837  1.00  0.00     0.007 A 
ATOM     17  C   UNL     1      -5.175   5.596  -3.530  1.00  0.00     0.127 A 
ATOM     18  C   UNL     1      -6.760   4.218  -2.337  1.00  0.00     0.004 A 
ATOM     19  C   UNL     1      -6.277   5.480  -2.684  1.00  0.00     0.047 A 
BRANCH  17  20
ATOM     20  O   UNL     1      -4.704   6.828  -3.869  1.00  0.00    -0.457 OA
BRANCH  20  21
ATOM     21  C   UNL     1      -3.503   7.234  -3.312  1.00  0.00     0.127 A 
ATOM     22  C   UNL     1      -3.479   7.642  -1.989  1.00  0.00     0.047 A 
ATOM     23  C   UNL     1      -2.360   7.221  -4.089  1.00  0.00     0.047 A 
ATOM     24  C   UNL     1      -2.270   8.051  -1.428  1.00  0.00     0.004 A 
ATOM     25  C   UNL     1      -1.151   7.630  -3.526  1.00  0.00     0.004 A 
ATOM     26  C   UNL     1      -1.106   8.045  -2.195  1.00  0.00     0.000 A 
ENDBRANCH  20  21
ENDBRANCH  17  20
ENDBRANCH   1  14
TORSDOF 7
ENDMDL
MODEL 4
REMARK VINA RESULT:    -6.162     14.005     17.513
REMARK INTER + INTRA:         -11.808
REMARK INTER:                 -10.784
REMARK INTRA:                  -1.025
REMARK UNBOUND:                -3.125
REMARK SMILES CC1(C)[C@H](C=C(Cl)Cl)[C@H]1C(=O)OCc1cccc(Oc2ccccc2)c1
REMARK SMILES IDX 13 1 12 2 10 3 11 4 9 5 4 6 2 7 1 8 3 9 5 10 7 11 6 12 8 13
REMARK SMILES IDX 14 14 26 15 15 16 18 17 16 18 17 19 19 20 20 21 21 22 25 23
REMARK SMILES IDX 22 24 24 25 23 26
REMARK H PARENT
REMARK Flexibility Score: inf
ROOT
ATOM      1  C   UNL     1       3.305  -4.802  10.325  1.00  0.00     0.268 C 
ENDROOT
BRANCH   1   2
ATOM      2  O   UNL     1       2.622  -5.943   9.821  1.00  0.00    -0.461 OA
BRANCH   2   3
ATOM      3  C   UNL     1       1.488  -5.690   9.106  1.00  0.00     0.310 C 
ATOM      4  O   UNL     1       0.580  -6.476   8.877  1.00  0.00    -0.252 OA
BRANCH   3   5
ATOM      5  C   UNL     1       1.452  -4.293   8.602  1.00  0.00     0.113 C 
ATOM      6  C   UNL     1       0.175  -3.784   8.013  1.00  0.00     0.035 C 
ATOM      7  C   UNL     1       1.365  -4.029   7.133  1.00  0.00    -0.014 C 
ATOM      8  C   UNL     1       2.052  -2.835   6.559  1.00  0.00     0.012 C 
ATOM      9  C   UNL     1       1.387  -5.213   6.226  1.00  0.00     0.012 C 
BRANCH   6  10
ATOM     10  C   UNL     1      -0.239  -2.426   8.333  1.00  0.00     0.011 C 
ATOM     11  Cl  UNL     1      -2.701  -3.131   9.170  1.00  0.00    -0.071 Cl
ATOM     12  C   UNL     1      -1.421  -2.024   8.825  1.00  0.00     0.103 C 
ATOM     13  Cl  UNL     1      -1.715  -0.348   9.135  1.00  0.00    -0.071 Cl
ENDBRANCH   6  10
ENDBRANCH   3   5
ENDBRANCH   2   3
ENDBRANCH   1   2
BRANCH   1  14
ATOM     14  C   UNL     1       4.774  -4.982  10.145  1.00  0.00    -0.007 A 
ATOM     15  C   UNL     1       5.269  -6.166   9.597  1.00  0.00     0.054 A 
ATOM     16  C   UNL     1       5.652  -3.967  10.524  1.00  0.00     0.007 A 
ATOM     17  C   UNL     1       6.644  -6.333   9.429  1.00  0.00     0.127 A 
ATOM     18  C   UNL     1       7.026  -4.136  10.356  1.00  0.00     0.004 A 
ATOM     19  C   UNL     1       7.522  -5.319   9.808  1.00  0.00     0.047 A 
BRANCH  17  20
ATOM     20  O   UNL     1       7.127  -7.488   8.894  1.00  0.00    -0.457 OA
BRANCH  20  21
ATOM     21  C   UNL     1       7.814  -7.405   7.695  1.00  0.00     0.127 A 
ATOM     22  C   UNL     1       7.233  -6.735   6.632  1.00  0.00     0.047 A 
ATOM     23  C   UNL     1       9.060  -7.993   7.589  1.00  0.00     0.047 A 
ATOM     24  C   UNL     1       7.923  -6.652   5.424  1.00  0.00     0.004 A 
ATOM     25  C   UNL     1       9.751  -7.908   6.380  1.00  0.00     0.004 A 
ATOM     26  C   UNL     1       9.183  -7.237   5.297  1.00  0.00     0.000 A 
ENDBRANCH  20  21
ENDBRANCH  17  20
ENDBRANCH   1  14
TORSDOF 7
ENDMDL
MODEL 5
REMARK VINA RESULT:    -6.080      2.659      5.261
REMARK INTER + INTRA:         -11.693
REMARK INTER:                  -9.491
REMARK INTRA:                  -2.202
REMARK UNBOUND:                -3.125
REMARK SMILES CC1(C)[C@H](C=C(Cl)Cl)[C@H]1C(=O)OCc1cccc(Oc2ccccc2)c1
REMARK SMILES IDX 13 1 12 2 10 3 11 4 9 5 4 6 2 7 1 8 3 9 5 10 7 11 6 12 8 13
REMARK SMILES IDX 14 14 26 15 15 16 18 17 16 18 17 19 19 20 20 21 21 22 25 23
REMARK SMILES IDX 22 24 24 25 23 26
REMARK H PARENT
REMARK Flexibility Score: inf
ROOT
ATOM      1  C   UNL     1       0.605   3.220  -1.025  1.00  0.00     0.268 C 
ENDROOT
BRANCH   1   2
ATOM      2  O   UNL     1       0.246   4.168  -2.022  1.00  0.00    -0.461 OA
BRANCH   2   3
ATOM      3  C   UNL     1       0.104   5.456  -1.594  1.00  0.00     0.310 C 
ATOM      4  O   UNL     1       0.941   6.124  -1.004  1.00  0.00    -0.252 OA
BRANCH   3   5
ATOM      5  C   UNL     1      -1.234   6.006  -1.929  1.00  0.00     0.113 C 
ATOM      6  C   UNL     1      -2.056   5.295  -2.956  1.00  0.00     0.035 C 
ATOM      7  C   UNL     1      -1.470   6.642  -3.262  1.00  0.00    -0.014 C 
ATOM      8  C   UNL     1      -2.414   7.792  -3.371  1.00  0.00     0.012 C 
ATOM      9  C   UNL     1      -0.300   6.750  -4.181  1.00  0.00     0.012 C 
BRANCH   6  10
ATOM     10  C   UNL     1      -3.485   5.150  -2.716  1.00  0.00     0.011 C 
ATOM     11  Cl  UNL     1      -3.218   3.079  -1.013  1.00  0.00    -0.071 Cl
ATOM     12  C   UNL     1      -4.095   4.257  -1.921  1.00  0.00     0.103 C 
ATOM     13  Cl  UNL     1      -5.818   4.250  -1.775  1.00  0.00    -0.071 Cl
ENDBRANCH   6  10
ENDBRANCH   3   5
ENDBRANCH   2   3
ENDBRANCH   1   2
BRANCH   1  14
ATOM     14  C   UNL     1       0.112   1.870  -1.423  1.00  0.00    -0.007 A 
ATOM     15  C   UNL     1      -0.475   1.683  -2.674  1.00  0.00     0.054 A 
ATOM     16  C   UNL     1       0.239   0.795  -0.544  1.00  0.00     0.007 A 
ATOM     17  C   UNL     1      -0.936   0.420  -3.045  1.00  0.00     0.127 A 
ATOM     18  C   UNL     1      -0.222  -0.468  -0.915  1.00  0.00     0.004 A 
ATOM     19  C   UNL     1      -0.809  -0.655  -2.166  1.00  0.00     0.047 A 
BRANCH  17  20
ATOM     20  O   UNL     1      -1.509   0.237  -4.266  1.00  0.00    -0.457 OA
BRANCH  20  21
ATOM     21  C   UNL     1      -2.892   0.247  -4.337  1.00  0.00     0.127 A 
ATOM     22  C   UNL     1      -3.570  -0.956  -4.440  1.00  0.00     0.047 A 
ATOM     23  C   UNL     1      -3.560   1.456  -4.303  1.00  0.00     0.047 A 
ATOM     24  C   UNL     1      -4.962  -0.946  -4.511  1.00  0.00     0.004 A 
ATOM     25  C   UNL     1      -4.954   1.465  -4.374  1.00  0.00     0.004 A 
ATOM     26  C   UNL     1      -5.654   0.264  -4.477  1.00  0.00     0.000 A 
ENDBRANCH  20  21
ENDBRANCH  17  20
ENDBRANCH   1  14
TORSDOF 7
ENDMDL
