MODEL 1
REMARK VINA RESULT:    -6.909      0.000      0.000
REMARK INTER + INTRA:         -11.568
REMARK INTER:                 -10.140
REMARK INTRA:                  -1.428
REMARK UNBOUND:                -1.428
REMARK SMILES CC1(C)C(C=C(Br)Br)C1C(=O)OC(C#N)c1cccc(Oc2ccccc2)c1
REMARK SMILES IDX 13 1 12 2 10 3 11 4 9 5 4 6 2 7 1 8 3 9 5 10 7 11 6 12 8 13
REMARK SMILES IDX 16 14 28 15 17 16 20 17 18 18 19 19 21 20 22 21 23 22 27 23
REMARK SMILES IDX 24 24 26 25 25 26 14 27 15 28
REMARK H PARENT
REMARK Flexibility Score: inf
ROOT
ATOM      1  C   UNL     1       1.082   3.284  -3.926  1.00  0.00     0.309 C
ENDROOT
BRANCH   1   2
ATOM      2  O   UNL     1       0.773   2.219  -3.016  1.00  0.00    -0.442 OA
BRANCH   2   3
ATOM      3  C   UNL     1      -0.525   1.813  -3.015  1.00  0.00     0.311 C
ATOM      4  O   UNL     1      -1.407   2.164  -3.786  1.00  0.00    -0.252 OA
BRANCH   3   5
ATOM      5  C   UNL     1      -0.788   0.842  -1.922  1.00  0.00     0.113 C
ATOM      6  C   UNL     1      -1.265   1.368  -0.606  1.00  0.00     0.035 C
ATOM      7  C   UNL     1       0.115   0.793  -0.731  1.00  0.00    -0.014 C
ATOM      8  C   UNL     1       1.262   1.743  -0.640  1.00  0.00     0.012 C
ATOM      9  C   UNL     1       0.410  -0.554  -0.160  1.00  0.00     0.012 C
BRANCH   6  10
ATOM     10  C   UNL     1      -1.458   2.803  -0.463  1.00  0.00     0.001 C
ATOM     11  Br  UNL     1      -4.154   2.760  -1.363  1.00  0.00    -0.043 Br
ATOM     12  C   UNL     1      -2.565   3.518  -0.728  1.00  0.00     0.057 C
ATOM     13  Br  UNL     1      -2.601   5.375  -0.472  1.00  0.00    -0.043 Br
ENDBRANCH   6  10
ENDBRANCH   3   5
ENDBRANCH   2   3
ENDBRANCH   1   2
BRANCH   1  14
ATOM     14  C   UNL     1       0.721   4.595  -3.316  1.00  0.00     0.011 A
ATOM     15  C   UNL     1      -0.118   5.475  -4.000  1.00  0.00     0.055 A
ATOM     16  C   UNL     1       1.221   4.941  -2.061  1.00  0.00     0.009 A
ATOM     17  C   UNL     1      -0.456   6.701  -3.428  1.00  0.00     0.127 A
ATOM     18  C   UNL     1       0.883   6.169  -1.490  1.00  0.00     0.004 A
ATOM     19  C   UNL     1       0.045   7.049  -2.174  1.00  0.00     0.047 A
BRANCH  17  20
ATOM     20  O   UNL     1      -1.275   7.561  -4.095  1.00  0.00    -0.457 OA
BRANCH  20  21
ATOM     21  C   UNL     1      -2.582   7.679  -3.652  1.00  0.00     0.127 A
ATOM     22  C   UNL     1      -2.979   8.850  -3.031  1.00  0.00     0.047 A
ATOM     23  C   UNL     1      -3.456   6.624  -3.841  1.00  0.00     0.047 A
ATOM     24  C   UNL     1      -4.295   8.969  -2.584  1.00  0.00     0.004 A
ATOM     25  C   UNL     1      -4.771   6.743  -3.393  1.00  0.00     0.004 A
ATOM     26  C   UNL     1      -5.192   7.916  -2.766  1.00  0.00     0.000 A
ENDBRANCH  20  21
ENDBRANCH  17  20
ENDBRANCH   1  14
BRANCH   1  27
ATOM     27  C   UNL     1       2.508   3.206  -4.303  1.00  0.00     0.113 C
ATOM     28  N   UNL     1       3.627   3.153  -4.607  1.00  0.00    -0.194 NA
ENDBRANCH   1  27
TORSDOF 8
ENDMDL
MODEL 2
REMARK VINA RESULT:    -6.855      2.560      5.583
REMARK INTER + INTRA:         -11.489
REMARK INTER:                 -10.359
REMARK INTRA:                  -1.130
REMARK UNBOUND:                -1.428
REMARK SMILES CC1(C)C(C=C(Br)Br)C1C(=O)OC(C#N)c1cccc(Oc2ccccc2)c1
REMARK SMILES IDX 13 1 12 2 10 3 11 4 9 5 4 6 2 7 1 8 3 9 5 10 7 11 6 12 8 13
REMARK SMILES IDX 16 14 28 15 17 16 20 17 18 18 19 19 21 20 22 21 23 22 27 23
REMARK SMILES IDX 24 24 26 25 25 26 14 27 15 28
REMARK H PARENT
REMARK Flexibility Score: inf
ROOT
ATOM      1  C   UNL     1       0.545   3.404  -2.668  1.00  0.00     0.309 C
ENDROOT
BRANCH   1   2
ATOM      2  O   UNL     1      -0.522   3.702  -3.580  1.00  0.00    -0.442 OA
BRANCH   2   3
ATOM      3  C   UNL     1      -1.388   4.665  -3.167  1.00  0.00     0.311 C
ATOM      4  O   UNL     1      -1.292   5.871  -3.351  1.00  0.00    -0.252 OA
BRANCH   3   5
ATOM      5  C   UNL     1      -2.533   4.081  -2.422  1.00  0.00     0.113 C
ATOM      6  C   UNL     1      -3.565   5.009  -1.866  1.00  0.00     0.035 C
ATOM      7  C   UNL     1      -2.640   4.272  -0.943  1.00  0.00    -0.014 C
ATOM      8  C   UNL     1      -1.603   5.074  -0.230  1.00  0.00     0.012 C
ATOM      9  C   UNL     1      -3.153   3.119  -0.147  1.00  0.00     0.012 C
BRANCH   6  10
ATOM     10  C   UNL     1      -3.403   6.438  -2.089  1.00  0.00     0.001 C
ATOM     11  Br  UNL     1      -6.104   6.852  -2.873  1.00  0.00    -0.043 Br
ATOM     12  C   UNL     1      -4.331   7.320  -2.497  1.00  0.00     0.057 C
ATOM     13  Br  UNL     1      -3.908   9.133  -2.722  1.00  0.00    -0.043 Br
ENDBRANCH   6  10
ENDBRANCH   3   5
ENDBRANCH   2   3
ENDBRANCH   1   2
BRANCH   1  14
ATOM     14  C   UNL     1       0.288   2.099  -1.995  1.00  0.00     0.011 A
ATOM     15  C   UNL     1      -0.536   1.150  -2.601  1.00  0.00     0.055 A
ATOM     16  C   UNL     1       0.874   1.826  -0.759  1.00  0.00     0.009 A
ATOM     17  C   UNL     1      -0.774  -0.070  -1.971  1.00  0.00     0.127 A
ATOM     18  C   UNL     1       0.634   0.605  -0.129  1.00  0.00     0.004 A
ATOM     19  C   UNL     1      -0.190  -0.343  -0.734  1.00  0.00     0.047 A
BRANCH  17  20
ATOM     20  O   UNL     1      -1.579  -0.996  -2.562  1.00  0.00    -0.457 OA
BRANCH  20  21
ATOM     21  C   UNL     1      -2.824  -0.579  -3.002  1.00  0.00     0.127 A
ATOM     22  C   UNL     1      -3.298  -1.040  -4.217  1.00  0.00     0.047 A
ATOM     23  C   UNL     1      -3.561   0.289  -2.216  1.00  0.00     0.047 A
ATOM     24  C   UNL     1      -4.552  -0.620  -4.661  1.00  0.00     0.004 A
ATOM     25  C   UNL     1      -4.814   0.710  -2.661  1.00  0.00     0.004 A
ATOM     26  C   UNL     1      -5.311   0.255  -3.883  1.00  0.00     0.000 A
ENDBRANCH  20  21
ENDBRANCH  17  20
ENDBRANCH   1  14
BRANCH   1  27
ATOM     27  C   UNL     1       1.830   3.425  -3.396  1.00  0.00     0.113 C
ATOM     28  N   UNL     1       2.835   3.448  -3.975  1.00  0.00    -0.194 NA
ENDBRANCH   1  27
TORSDOF 8
ENDMDL
MODEL 3
REMARK VINA RESULT:    -6.803      4.358      5.848
REMARK INTER + INTRA:         -11.413
REMARK INTER:                 -10.271
REMARK INTRA:                  -1.143
REMARK UNBOUND:                -1.428
REMARK SMILES CC1(C)C(C=C(Br)Br)C1C(=O)OC(C#N)c1cccc(Oc2ccccc2)c1
REMARK SMILES IDX 13 1 12 2 10 3 11 4 9 5 4 6 2 7 1 8 3 9 5 10 7 11 6 12 8 13
REMARK SMILES IDX 16 14 28 15 17 16 20 17 18 18 19 19 21 20 22 21 23 22 27 23
REMARK SMILES IDX 24 24 26 25 25 26 14 27 15 28
REMARK H PARENT
REMARK Flexibility Score: inf
ROOT
ATOM      1  C   UNL     1      -4.378   1.682  -2.456  1.00  0.00     0.309 C
ENDROOT
BRANCH   1   2
ATOM      2  O   UNL     1      -3.020   1.797  -2.905  1.00  0.00    -0.442 OA
BRANCH   2   3
ATOM      3  C   UNL     1      -2.100   1.144  -2.145  1.00  0.00     0.311 C
ATOM      4  O   UNL     1      -1.487   0.128  -2.441  1.00  0.00    -0.252 OA
BRANCH   3   5
ATOM      5  C   UNL     1      -1.897   1.822  -0.839  1.00  0.00     0.113 C
ATOM      6  C   UNL     1      -0.964   2.988  -0.783  1.00  0.00     0.035 C
ATOM      7  C   UNL     1      -0.589   1.693  -0.125  1.00  0.00    -0.014 C
ATOM      8  C   UNL     1       0.513   0.903  -0.748  1.00  0.00     0.012 C
ATOM      9  C   UNL     1      -0.638   1.578   1.362  1.00  0.00     0.012 C
BRANCH   6  10
ATOM     10  C   UNL     1      -0.308   3.409  -2.012  1.00  0.00     0.001 C
ATOM     11  Br  UNL     1      -1.092   6.131  -1.766  1.00  0.00    -0.043 Br
ATOM     12  C   UNL     1      -0.268   4.642  -2.546  1.00  0.00     0.057 C
ATOM     13  Br  UNL     1       0.641   4.971  -4.153  1.00  0.00    -0.043 Br
ENDBRANCH   6  10
ENDBRANCH   3   5
ENDBRANCH   2   3
ENDBRANCH   1   2
BRANCH   1  14
ATOM     14  C   UNL     1      -5.037   3.018  -2.487  1.00  0.00     0.011 A
ATOM     15  C   UNL     1      -6.427   3.114  -2.395  1.00  0.00     0.055 A
ATOM     16  C   UNL     1      -4.266   4.174  -2.605  1.00  0.00     0.009 A
ATOM     17  C   UNL     1      -7.043   4.364  -2.423  1.00  0.00     0.127 A
ATOM     18  C   UNL     1      -4.883   5.425  -2.633  1.00  0.00     0.004 A
ATOM     19  C   UNL     1      -6.272   5.520  -2.543  1.00  0.00     0.047 A
BRANCH  17  20
ATOM     20  O   UNL     1      -8.398   4.458  -2.335  1.00  0.00    -0.457 OA
BRANCH  20  21
ATOM     21  C   UNL     1      -8.963   4.449  -1.070  1.00  0.00     0.127 A
ATOM     22  C   UNL     1      -9.671   3.336  -0.657  1.00  0.00     0.047 A
ATOM     23  C   UNL     1      -8.803   5.554  -0.253  1.00  0.00     0.047 A
ATOM     24  C   UNL     1     -10.241   3.326   0.618  1.00  0.00     0.004 A
ATOM     25  C   UNL     1      -9.372   5.545   1.020  1.00  0.00     0.004 A
ATOM     26  C   UNL     1     -10.090   4.431   1.456  1.00  0.00     0.000 A
ENDBRANCH  20  21
ENDBRANCH  17  20
ENDBRANCH   1  14
BRANCH   1  27
ATOM     27  C   UNL     1      -5.083   0.681  -3.283  1.00  0.00     0.113 C
ATOM     28  N   UNL     1      -5.638  -0.112  -3.923  1.00  0.00    -0.194 NA
ENDBRANCH   1  27
TORSDOF 8
ENDMDL
MODEL 4
REMARK VINA RESULT:    -6.787      3.162      4.757
REMARK INTER + INTRA:         -11.390
REMARK INTER:                  -9.882
REMARK INTRA:                  -1.508
REMARK UNBOUND:                -1.428
REMARK SMILES CC1(C)C(C=C(Br)Br)C1C(=O)OC(C#N)c1cccc(Oc2ccccc2)c1
REMARK SMILES IDX 13 1 12 2 10 3 11 4 9 5 4 6 2 7 1 8 3 9 5 10 7 11 6 12 8 13
REMARK SMILES IDX 16 14 28 15 17 16 20 17 18 18 19 19 21 20 22 21 23 22 27 23
REMARK SMILES IDX 24 24 26 25 25 26 14 27 15 28
REMARK H PARENT
REMARK Flexibility Score: inf
ROOT
ATOM      1  C   UNL     1      -4.417   1.206  -2.845  1.00  0.00     0.309 C
ENDROOT
BRANCH   1   2
ATOM      2  O   UNL     1      -3.061   1.328  -3.294  1.00  0.00    -0.442 OA
BRANCH   2   3
ATOM      3  C   UNL     1      -2.119   0.860  -2.432  1.00  0.00     0.311 C
ATOM      4  O   UNL     1      -1.385  -0.105  -2.594  1.00  0.00    -0.252 OA
BRANCH   3   5
ATOM      5  C   UNL     1      -2.061   1.683  -1.195  1.00  0.00     0.113 C
ATOM      6  C   UNL     1      -1.189   2.897  -1.191  1.00  0.00     0.035 C
ATOM      7  C   UNL     1      -0.816   1.700  -0.366  1.00  0.00    -0.014 C
ATOM      8  C   UNL     1       0.370   0.909  -0.806  1.00  0.00     0.012 C
ATOM      9  C   UNL     1      -0.990   1.740   1.116  1.00  0.00     0.012 C
BRANCH   6  10
ATOM     10  C   UNL     1      -0.447   3.220  -2.401  1.00  0.00     0.001 C
ATOM     11  Br  UNL     1       0.463   5.737  -1.442  1.00  0.00    -0.043 Br
ATOM     12  C   UNL     1       0.270   4.327  -2.658  1.00  0.00     0.057 C
ATOM     13  Br  UNL     1       1.157   4.546  -4.296  1.00  0.00    -0.043 Br
ENDBRANCH   6  10
ENDBRANCH   3   5
ENDBRANCH   2   3
ENDBRANCH   1   2
BRANCH   1  14
ATOM     14  C   UNL     1      -5.096   2.531  -2.911  1.00  0.00     0.011 A
ATOM     15  C   UNL     1      -4.604   3.526  -3.757  1.00  0.00     0.055 A
ATOM     16  C   UNL     1      -6.223   2.777  -2.127  1.00  0.00     0.009 A
ATOM     17  C   UNL     1      -5.240   4.765  -3.819  1.00  0.00     0.127 A
ATOM     18  C   UNL     1      -6.858   4.018  -2.189  1.00  0.00     0.004 A
ATOM     19  C   UNL     1      -6.366   5.012  -3.034  1.00  0.00     0.047 A
BRANCH  17  20
ATOM     20  O   UNL     1      -4.760   5.737  -4.643  1.00  0.00    -0.457 OA
BRANCH  20  21
ATOM     21  C   UNL     1      -3.762   6.563  -4.152  1.00  0.00     0.127 A
ATOM     22  C   UNL     1      -4.072   7.480  -3.165  1.00  0.00     0.047 A
ATOM     23  C   UNL     1      -2.481   6.449  -4.663  1.00  0.00     0.047 A
ATOM     24  C   UNL     1      -3.068   8.313  -2.670  1.00  0.00     0.004 A
ATOM     25  C   UNL     1      -1.478   7.281  -4.169  1.00  0.00     0.004 A
ATOM     26  C   UNL     1      -1.770   8.213  -3.172  1.00  0.00     0.000 A
ENDBRANCH  20  21
ENDBRANCH  17  20
ENDBRANCH   1  14
BRANCH   1  27
ATOM     27  C   UNL     1      -5.107   0.174  -3.646  1.00  0.00     0.113 C
ATOM     28  N   UNL     1      -5.640  -0.636  -4.283  1.00  0.00    -0.194 NA
ENDBRANCH   1  27
TORSDOF 8
ENDMDL
MODEL 5
REMARK VINA RESULT:    -6.737      3.399      5.225
REMARK INTER + INTRA:         -11.316
REMARK INTER:                 -10.086
REMARK INTRA:                  -1.231
REMARK UNBOUND:                -1.428
REMARK SMILES CC1(C)C(C=C(Br)Br)C1C(=O)OC(C#N)c1cccc(Oc2ccccc2)c1
REMARK SMILES IDX 13 1 12 2 10 3 11 4 9 5 4 6 2 7 1 8 3 9 5 10 7 11 6 12 8 13
REMARK SMILES IDX 16 14 28 15 17 16 20 17 18 18 19 19 21 20 22 21 23 22 27 23
REMARK SMILES IDX 24 24 26 25 25 26 14 27 15 28
REMARK H PARENT
REMARK Flexibility Score: inf
ROOT
ATOM      1  C   UNL     1      -4.696   1.458  -2.901  1.00  0.00     0.309 C
ENDROOT
BRANCH   1   2
ATOM      2  O   UNL     1      -3.372   1.713  -3.390  1.00  0.00    -0.442 OA
BRANCH   2   3
ATOM      3  C   UNL     1      -2.411   1.828  -2.434  1.00  0.00     0.311 C
ATOM      4  O   UNL     1      -1.812   0.919  -1.878  1.00  0.00    -0.252 OA
BRANCH   3   5
ATOM      5  C   UNL     1      -2.141   3.252  -2.107  1.00  0.00     0.113 C
ATOM      6  C   UNL     1      -1.125   3.557  -1.054  1.00  0.00     0.035 C
ATOM      7  C   UNL     1      -2.580   3.814  -0.793  1.00  0.00    -0.014 C
ATOM      8  C   UNL     1      -3.265   2.928   0.193  1.00  0.00     0.012 C
ATOM      9  C   UNL     1      -3.096   5.215  -0.794  1.00  0.00     0.012 C
BRANCH   6  10
ATOM     10  C   UNL     1      -0.443   2.446  -0.408  1.00  0.00     0.001 C
ATOM     11  Br  UNL     1       1.962   2.763  -1.889  1.00  0.00    -0.043 Br
ATOM     12  C   UNL     1       0.804   1.998  -0.633  1.00  0.00     0.057 C
ATOM     13  Br  UNL     1       1.495   0.538   0.319  1.00  0.00    -0.043 Br
ENDBRANCH   6  10
ENDBRANCH   3   5
ENDBRANCH   2   3
ENDBRANCH   1   2
BRANCH   1  14
ATOM     14  C   UNL     1      -5.474   2.728  -2.852  1.00  0.00     0.011 A
ATOM     15  C   UNL     1      -5.061   3.829  -3.604  1.00  0.00     0.055 A
ATOM     16  C   UNL     1      -6.615   2.816  -2.055  1.00  0.00     0.009 A
ATOM     17  C   UNL     1      -5.790   5.017  -3.558  1.00  0.00     0.127 A
ATOM     18  C   UNL     1      -7.343   4.005  -2.009  1.00  0.00     0.004 A
ATOM     19  C   UNL     1      -6.931   5.106  -2.760  1.00  0.00     0.047 A
BRANCH  17  20
ATOM     20  O   UNL     1      -5.388   6.091  -4.291  1.00  0.00    -0.457 OA
BRANCH  20  21
ATOM     21  C   UNL     1      -4.325   6.837  -3.810  1.00  0.00     0.127 A
ATOM     22  C   UNL     1      -4.571   7.857  -2.909  1.00  0.00     0.047 A
ATOM     23  C   UNL     1      -3.044   6.542  -4.242  1.00  0.00     0.047 A
ATOM     24  C   UNL     1      -3.500   8.609  -2.423  1.00  0.00     0.004 A
ATOM     25  C   UNL     1      -1.974   7.294  -3.758  1.00  0.00     0.004 A
ATOM     26  C   UNL     1      -2.201   8.326  -2.848  1.00  0.00     0.000 A
ENDBRANCH  20  21
ENDBRANCH  17  20
ENDBRANCH   1  14
BRANCH   1  27
ATOM     27  C   UNL     1      -5.339   0.430  -3.745  1.00  0.00     0.113 C
ATOM     28  N   UNL     1      -5.852  -0.378  -4.401  1.00  0.00    -0.194 NA
ENDBRANCH   1  27
TORSDOF 8
ENDMDL
