MODEL 1
REMARK VINA RESULT:    -7.639      0.000      0.000
REMARK INTER + INTRA:         -11.791
REMARK INTER:                 -11.212
REMARK INTRA:                  -0.579
REMARK UNBOUND:                -0.579
REMARK SMILES CC1(C)C(C=C(Br)Br)C1C(=O)OC(C#N)c1cccc(Oc2ccccc2)c1
REMARK SMILES IDX 13 1 12 2 10 3 11 4 9 5 4 6 2 7 1 8 3 9 5 10 7 11 6 12 8 13
REMARK SMILES IDX 16 14 28 15 17 16 20 17 18 18 19 19 21 20 22 21 23 22 27 23
REMARK SMILES IDX 24 24 26 25 25 26 14 27 15 28
REMARK H PARENT
REMARK Flexibility Score: inf
ROOT
ATOM      1  C   UNL     1      -3.946   1.274  -4.019  1.00  0.00     0.309 C
ENDROOT
BRANCH   1   2
ATOM      2  O   UNL     1      -4.507   2.364  -3.274  1.00  0.00    -0.442 OA
BRANCH   2   3
ATOM      3  C   UNL     1      -4.461   3.575  -3.891  1.00  0.00     0.311 C
ATOM      4  O   UNL     1      -3.601   3.976  -4.663  1.00  0.00    -0.252 OA
BRANCH   3   5
ATOM      5  C   UNL     1      -5.624   4.419  -3.515  1.00  0.00     0.113 C
ATOM      6  C   UNL     1      -5.364   5.712  -2.811  1.00  0.00     0.035 C
ATOM      7  C   UNL     1      -6.005   4.571  -2.077  1.00  0.00    -0.014 C
ATOM      8  C   UNL     1      -5.192   3.891  -1.027  1.00  0.00     0.012 C
ATOM      9  C   UNL     1      -7.463   4.618  -1.764  1.00  0.00     0.012 C
BRANCH   6  10
ATOM     10  C   UNL     1      -3.985   6.085  -2.536  1.00  0.00     0.001 C
ATOM     11  Br  UNL     1      -4.449   8.877  -2.801  1.00  0.00    -0.043 Br
ATOM     12  C   UNL     1      -3.456   7.320  -2.496  1.00  0.00     0.057 C
ATOM     13  Br  UNL     1      -1.637   7.582  -2.121  1.00  0.00    -0.043 Br
ENDBRANCH   6  10
ENDBRANCH   3   5
ENDBRANCH   2   3
ENDBRANCH   1   2
BRANCH   1  14
ATOM     14  C   UNL     1      -2.788   0.697  -3.280  1.00  0.00     0.011 A
ATOM     15  C   UNL     1      -2.325   1.312  -2.116  1.00  0.00     0.055 A
ATOM     16  C   UNL     1      -2.167  -0.460  -3.751  1.00  0.00     0.009 A
ATOM     17  C   UNL     1      -1.242   0.771  -1.425  1.00  0.00     0.127 A
ATOM     18  C   UNL     1      -1.083  -1.001  -3.059  1.00  0.00     0.004 A
ATOM     19  C   UNL     1      -0.620  -0.385  -1.896  1.00  0.00     0.047 A
BRANCH  17  20
ATOM     20  O   UNL     1      -0.789   1.371  -0.290  1.00  0.00    -0.457 OA
BRANCH  20  21
ATOM     21  C   UNL     1       0.581   1.429  -0.095  1.00  0.00     0.127 A
ATOM     22  C   UNL     1       1.120   0.891   1.059  1.00  0.00     0.047 A
ATOM     23  C   UNL     1       1.375   2.023  -1.060  1.00  0.00     0.047 A
ATOM     24  C   UNL     1       2.501   0.949   1.256  1.00  0.00     0.004 A
ATOM     25  C   UNL     1       2.754   2.081  -0.863  1.00  0.00     0.004 A
ATOM     26  C   UNL     1       3.318   1.543   0.294  1.00  0.00     0.000 A
ENDBRANCH  20  21
ENDBRANCH  17  20
ENDBRANCH   1  14
BRANCH   1  27
ATOM     27  C   UNL     1      -4.999   0.276  -4.295  1.00  0.00     0.113 C
ATOM     28  N   UNL     1      -5.822  -0.515  -4.503  1.00  0.00    -0.194 NA
ENDBRANCH   1  27
TORSDOF 8
ENDMDL
MODEL 2
REMARK VINA RESULT:    -7.472      3.012      6.467
REMARK INTER + INTRA:         -11.545
REMARK INTER:                 -10.083
REMARK INTRA:                  -1.462
REMARK UNBOUND:                -0.579
REMARK SMILES CC1(C)C(C=C(Br)Br)C1C(=O)OC(C#N)c1cccc(Oc2ccccc2)c1
REMARK SMILES IDX 13 1 12 2 10 3 11 4 9 5 4 6 2 7 1 8 3 9 5 10 7 11 6 12 8 13
REMARK SMILES IDX 16 14 28 15 17 16 20 17 18 18 19 19 21 20 22 21 23 22 27 23
REMARK SMILES IDX 24 24 26 25 25 26 14 27 15 28
REMARK H PARENT
REMARK Flexibility Score: inf
ROOT
ATOM      1  C   UNL     1      -4.309   1.500  -2.886  1.00  0.00     0.309 C
ENDROOT
BRANCH   1   2
ATOM      2  O   UNL     1      -2.979   1.630  -3.404  1.00  0.00    -0.442 OA
BRANCH   2   3
ATOM      3  C   UNL     1      -1.986   1.232  -2.564  1.00  0.00     0.311 C
ATOM      4  O   UNL     1      -1.775   0.098  -2.157  1.00  0.00    -0.252 OA
BRANCH   3   5
ATOM      5  C   UNL     1      -1.127   2.375  -2.161  1.00  0.00     0.113 C
ATOM      6  C   UNL     1      -0.239   2.209  -0.969  1.00  0.00     0.035 C
ATOM      7  C   UNL     1      -1.424   3.127  -0.903  1.00  0.00    -0.014 C
ATOM      8  C   UNL     1      -2.571   2.703  -0.048  1.00  0.00     0.012 C
ATOM      9  C   UNL     1      -1.218   4.605  -0.933  1.00  0.00     0.012 C
BRANCH   6  10
ATOM     10  C   UNL     1      -0.252   0.934  -0.269  1.00  0.00     0.001 C
ATOM     11  Br  UNL     1       2.399   1.193   0.723  1.00  0.00    -0.043 Br
ATOM     12  C   UNL     1       0.733   0.381   0.459  1.00  0.00     0.057 C
ATOM     13  Br  UNL     1       0.507  -1.287   1.286  1.00  0.00    -0.043 Br
ENDBRANCH   6  10
ENDBRANCH   3   5
ENDBRANCH   2   3
ENDBRANCH   1   2
BRANCH   1  14
ATOM     14  C   UNL     1      -5.000   2.820  -2.920  1.00  0.00     0.011 A
ATOM     15  C   UNL     1      -4.399   3.906  -3.560  1.00  0.00     0.055 A
ATOM     16  C   UNL     1      -6.247   2.971  -2.315  1.00  0.00     0.009 A
ATOM     17  C   UNL     1      -5.046   5.140  -3.593  1.00  0.00     0.127 A
ATOM     18  C   UNL     1      -6.893   4.207  -2.347  1.00  0.00     0.004 A
ATOM     19  C   UNL     1      -6.293   5.292  -2.986  1.00  0.00     0.047 A
BRANCH  17  20
ATOM     20  O   UNL     1      -4.461   6.200  -4.216  1.00  0.00    -0.457 OA
BRANCH  20  21
ATOM     21  C   UNL     1      -3.392   6.810  -3.580  1.00  0.00     0.127 A
ATOM     22  C   UNL     1      -3.600   7.436  -2.364  1.00  0.00     0.047 A
ATOM     23  C   UNL     1      -2.144   6.778  -4.177  1.00  0.00     0.047 A
ATOM     24  C   UNL     1      -2.524   8.051  -1.723  1.00  0.00     0.004 A
ATOM     25  C   UNL     1      -1.069   7.393  -3.537  1.00  0.00     0.004 A
ATOM     26  C   UNL     1      -1.258   8.029  -2.309  1.00  0.00     0.000 A
ENDBRANCH  20  21
ENDBRANCH  17  20
ENDBRANCH   1  14
BRANCH   1  27
ATOM     27  C   UNL     1      -5.032   0.461  -3.647  1.00  0.00     0.113 C
ATOM     28  N   UNL     1      -5.609  -0.350  -4.244  1.00  0.00    -0.194 NA
ENDBRANCH   1  27
TORSDOF 8
ENDMDL
MODEL 3
REMARK VINA RESULT:    -7.276      3.238      7.802
REMARK INTER + INTRA:         -11.258
REMARK INTER:                 -10.469
REMARK INTRA:                  -0.789
REMARK UNBOUND:                -0.579
REMARK SMILES CC1(C)C(C=C(Br)Br)C1C(=O)OC(C#N)c1cccc(Oc2ccccc2)c1
REMARK SMILES IDX 13 1 12 2 10 3 11 4 9 5 4 6 2 7 1 8 3 9 5 10 7 11 6 12 8 13
REMARK SMILES IDX 16 14 28 15 17 16 20 17 18 18 19 19 21 20 22 21 23 22 27 23
REMARK SMILES IDX 24 24 26 25 25 26 14 27 15 28
REMARK H PARENT
REMARK Flexibility Score: inf
ROOT
ATOM      1  C   UNL     1      -4.198   1.546  -2.583  1.00  0.00     0.309 C
ENDROOT
BRANCH   1   2
ATOM      2  O   UNL     1      -2.907   1.666  -3.196  1.00  0.00    -0.442 OA
BRANCH   2   3
ATOM      3  C   UNL     1      -1.876   1.131  -2.489  1.00  0.00     0.311 C
ATOM      4  O   UNL     1      -1.753  -0.032  -2.131  1.00  0.00    -0.252 OA
BRANCH   3   5
ATOM      5  C   UNL     1      -0.849   2.156  -2.170  1.00  0.00     0.113 C
ATOM      6  C   UNL     1       0.114   1.875  -1.062  1.00  0.00     0.035 C
ATOM      7  C   UNL     1      -0.937   2.933  -0.896  1.00  0.00    -0.014 C
ATOM      8  C   UNL     1      -2.047   2.650   0.061  1.00  0.00     0.012 C
ATOM      9  C   UNL     1      -0.552   4.374  -0.953  1.00  0.00     0.012 C
BRANCH   6  10
ATOM     10  C   UNL     1       0.004   0.608  -0.355  1.00  0.00     0.001 C
ATOM     11  Br  UNL     1       2.322   1.035   1.235  1.00  0.00    -0.043 Br
ATOM     12  C   UNL     1       0.816   0.122   0.599  1.00  0.00     0.057 C
ATOM     13  Br  UNL     1       0.492  -1.549   1.387  1.00  0.00    -0.043 Br
ENDBRANCH   6  10
ENDBRANCH   3   5
ENDBRANCH   2   3
ENDBRANCH   1   2
BRANCH   1  14
ATOM     14  C   UNL     1      -4.869   2.877  -2.548  1.00  0.00     0.011 A
ATOM     15  C   UNL     1      -6.262   2.956  -2.494  1.00  0.00     0.055 A
ATOM     16  C   UNL     1      -4.105   4.044  -2.567  1.00  0.00     0.009 A
ATOM     17  C   UNL     1      -6.888   4.200  -2.460  1.00  0.00     0.127 A
ATOM     18  C   UNL     1      -4.733   5.289  -2.533  1.00  0.00     0.004 A
ATOM     19  C   UNL     1      -6.125   5.367  -2.480  1.00  0.00     0.047 A
BRANCH  17  20
ATOM     20  O   UNL     1      -8.247   4.278  -2.408  1.00  0.00    -0.457 OA
BRANCH  20  21
ATOM     21  C   UNL     1      -8.838   4.375  -1.159  1.00  0.00     0.127 A
ATOM     22  C   UNL     1      -9.568   3.305  -0.675  1.00  0.00     0.047 A
ATOM     23  C   UNL     1      -8.684   5.539  -0.428  1.00  0.00     0.047 A
ATOM     24  C   UNL     1     -10.165   3.402   0.583  1.00  0.00     0.004 A
ATOM     25  C   UNL     1      -9.280   5.636   0.828  1.00  0.00     0.004 A
ATOM     26  C   UNL     1     -10.020   4.568   1.335  1.00  0.00     0.000 A
ENDBRANCH  20  21
ENDBRANCH  17  20
ENDBRANCH   1  14
BRANCH   1  27
ATOM     27  C   UNL     1      -4.990   0.530  -3.305  1.00  0.00     0.113 C
ATOM     28  N   UNL     1      -5.610  -0.264  -3.882  1.00  0.00    -0.194 NA
ENDBRANCH   1  27
TORSDOF 8
ENDMDL
MODEL 4
REMARK VINA RESULT:    -7.212      2.890      5.881
REMARK INTER + INTRA:         -11.164
REMARK INTER:                  -9.676
REMARK INTRA:                  -1.488
REMARK UNBOUND:                -0.579
REMARK SMILES CC1(C)C(C=C(Br)Br)C1C(=O)OC(C#N)c1cccc(Oc2ccccc2)c1
REMARK SMILES IDX 13 1 12 2 10 3 11 4 9 5 4 6 2 7 1 8 3 9 5 10 7 11 6 12 8 13
REMARK SMILES IDX 16 14 28 15 17 16 20 17 18 18 19 19 21 20 22 21 23 22 27 23
REMARK SMILES IDX 24 24 26 25 25 26 14 27 15 28
REMARK H PARENT
REMARK Flexibility Score: inf
ROOT
ATOM      1  C   UNL     1      -0.946   1.709  -1.328  1.00  0.00     0.309 C
ENDROOT
BRANCH   1   2
ATOM      2  O   UNL     1      -2.281   2.116  -1.000  1.00  0.00    -0.442 OA
BRANCH   2   3
ATOM      3  C   UNL     1      -3.268   1.475  -1.682  1.00  0.00     0.311 C
ATOM      4  O   UNL     1      -4.420   1.293  -1.314  1.00  0.00    -0.252 OA
BRANCH   3   5
ATOM      5  C   UNL     1      -2.786   0.986  -3.000  1.00  0.00     0.113 C
ATOM      6  C   UNL     1      -3.329   1.626  -4.237  1.00  0.00     0.035 C
ATOM      7  C   UNL     1      -3.704   0.215  -3.893  1.00  0.00    -0.014 C
ATOM      8  C   UNL     1      -5.111  -0.033  -3.462  1.00  0.00     0.012 C
ATOM      9  C   UNL     1      -3.108  -0.918  -4.662  1.00  0.00     0.012 C
BRANCH   6  10
ATOM     10  C   UNL     1      -4.295   2.704  -4.090  1.00  0.00     0.001 C
ATOM     11  Br  UNL     1      -2.423   4.766  -4.659  1.00  0.00    -0.043 Br
ATOM     12  C   UNL     1      -4.087   4.024  -4.228  1.00  0.00     0.057 C
ATOM     13  Br  UNL     1      -5.483   5.254  -3.995  1.00  0.00    -0.043 Br
ENDBRANCH   6  10
ENDBRANCH   3   5
ENDBRANCH   2   3
ENDBRANCH   1   2
BRANCH   1  14
ATOM     14  C   UNL     1      -0.226   2.825  -2.004  1.00  0.00     0.011 A
ATOM     15  C   UNL     1      -0.378   4.134  -1.544  1.00  0.00     0.055 A
ATOM     16  C   UNL     1       0.602   2.562  -3.095  1.00  0.00     0.009 A
ATOM     17  C   UNL     1       0.297   5.178  -2.176  1.00  0.00     0.127 A
ATOM     18  C   UNL     1       1.276   3.607  -3.727  1.00  0.00     0.004 A
ATOM     19  C   UNL     1       1.123   4.915  -3.268  1.00  0.00     0.047 A
BRANCH  17  20
ATOM     20  O   UNL     1       0.148   6.455  -1.729  1.00  0.00    -0.457 OA
BRANCH  20  21
ATOM     21  C   UNL     1      -0.997   7.139  -2.103  1.00  0.00     0.127 A
ATOM     22  C   UNL     1      -0.956   7.968  -3.208  1.00  0.00     0.047 A
ATOM     23  C   UNL     1      -2.154   6.974  -1.361  1.00  0.00     0.047 A
ATOM     24  C   UNL     1      -2.109   8.657  -3.586  1.00  0.00     0.004 A
ATOM     25  C   UNL     1      -3.306   7.663  -1.737  1.00  0.00     0.004 A
ATOM     26  C   UNL     1      -3.285   8.504  -2.850  1.00  0.00     0.000 A
ENDBRANCH  20  21
ENDBRANCH  17  20
ENDBRANCH   1  14
BRANCH   1  27
ATOM     27  C   UNL     1      -0.260   1.249  -0.103  1.00  0.00     0.113 C
ATOM     28  N   UNL     1       0.276   0.897   0.864  1.00  0.00    -0.194 NA
ENDBRANCH   1  27
TORSDOF 8
ENDMDL
MODEL 5
REMARK VINA RESULT:    -7.192      3.240      6.295
REMARK INTER + INTRA:         -11.134
REMARK INTER:                  -9.783
REMARK INTRA:                  -1.352
REMARK UNBOUND:                -0.579
REMARK SMILES CC1(C)C(C=C(Br)Br)C1C(=O)OC(C#N)c1cccc(Oc2ccccc2)c1
REMARK SMILES IDX 13 1 12 2 10 3 11 4 9 5 4 6 2 7 1 8 3 9 5 10 7 11 6 12 8 13
REMARK SMILES IDX 16 14 28 15 17 16 20 17 18 18 19 19 21 20 22 21 23 22 27 23
REMARK SMILES IDX 24 24 26 25 25 26 14 27 15 28
REMARK H PARENT
REMARK Flexibility Score: inf
ROOT
ATOM      1  C   UNL     1      -0.666   2.372  -0.655  1.00  0.00     0.309 C
ENDROOT
BRANCH   1   2
ATOM      2  O   UNL     1       0.011   3.291  -1.523  1.00  0.00    -0.442 OA
BRANCH   2   3
ATOM      3  C   UNL     1      -0.410   4.582  -1.446  1.00  0.00     0.311 C
ATOM      4  O   UNL     1      -0.171   5.382  -0.553  1.00  0.00    -0.252 OA
BRANCH   3   5
ATOM      5  C   UNL     1      -1.240   4.952  -2.621  1.00  0.00     0.113 C
ATOM      6  C   UNL     1      -0.591   4.980  -3.968  1.00  0.00     0.035 C
ATOM      7  C   UNL     1      -1.018   6.260  -3.312  1.00  0.00    -0.014 C
ATOM      8  C   UNL     1       0.059   7.172  -2.827  1.00  0.00     0.012 C
ATOM      9  C   UNL     1      -2.229   6.978  -3.808  1.00  0.00     0.012 C
BRANCH   6  10
ATOM     10  C   UNL     1       0.819   4.633  -4.064  1.00  0.00     0.001 C
ATOM     11  Br  UNL     1       0.338   1.896  -4.663  1.00  0.00    -0.043 Br
ATOM     12  C   UNL     1       1.357   3.432  -4.336  1.00  0.00     0.057 C
ATOM     13  Br  UNL     1       3.216   3.200  -4.413  1.00  0.00    -0.043 Br
ENDBRANCH   6  10
ENDBRANCH   3   5
ENDBRANCH   2   3
ENDBRANCH   1   2
BRANCH   1  14
ATOM     14  C   UNL     1      -1.594   1.514  -1.445  1.00  0.00     0.011 A
ATOM     15  C   UNL     1      -2.917   1.912  -1.641  1.00  0.00     0.055 A
ATOM     16  C   UNL     1      -1.139   0.314  -1.990  1.00  0.00     0.009 A
ATOM     17  C   UNL     1      -3.784   1.110  -2.381  1.00  0.00     0.127 A
ATOM     18  C   UNL     1      -2.008  -0.489  -2.730  1.00  0.00     0.004 A
ATOM     19  C   UNL     1      -3.330  -0.091  -2.925  1.00  0.00     0.047 A
BRANCH  17  20
ATOM     20  O   UNL     1      -5.076   1.497  -2.572  1.00  0.00    -0.457 OA
BRANCH  20  21
ATOM     21  C   UNL     1      -5.300   2.786  -3.027  1.00  0.00     0.127 A
ATOM     22  C   UNL     1      -4.703   3.198  -4.204  1.00  0.00     0.047 A
ATOM     23  C   UNL     1      -6.115   3.628  -2.291  1.00  0.00     0.047 A
ATOM     24  C   UNL     1      -4.928   4.497  -4.662  1.00  0.00     0.004 A
ATOM     25  C   UNL     1      -6.340   4.926  -2.749  1.00  0.00     0.004 A
ATOM     26  C   UNL     1      -5.748   5.360  -3.935  1.00  0.00     0.000 A
ENDBRANCH  20  21
ENDBRANCH  17  20
ENDBRANCH   1  14
BRANCH   1  27
ATOM     27  C   UNL     1       0.332   1.586   0.099  1.00  0.00     0.113 C
ATOM     28  N   UNL     1       1.115   0.976   0.699  1.00  0.00    -0.194 NA
ENDBRANCH   1  27
TORSDOF 8
ENDMDL
