MODEL 1
REMARK VINA RESULT:    -6.612      0.000      0.000
REMARK INTER + INTRA:         -11.699
REMARK INTER:                  -9.704
REMARK INTRA:                  -1.995
REMARK UNBOUND:                -1.995
REMARK SMILES CC1(C)C(C=C(Br)Br)C1C(=O)OC(C#N)c1cccc(Oc2ccccc2)c1
REMARK SMILES IDX 13 1 12 2 10 3 11 4 9 5 4 6 2 7 1 8 3 9 5 10 7 11 6 12 8 13
REMARK SMILES IDX 16 14 28 15 17 16 20 17 18 18 19 19 21 20 22 21 23 22 27 23
REMARK SMILES IDX 24 24 26 25 25 26 14 27 15 28
REMARK H PARENT
REMARK Flexibility Score: inf
ROOT
ATOM      1  C   UNL     1       0.511   2.787  -4.025  1.00  0.00     0.309 C
ENDROOT
BRANCH   1   2
ATOM      2  O   UNL     1       0.060   1.726  -3.173  1.00  0.00    -0.442 OA
BRANCH   2   3
ATOM      3  C   UNL     1      -0.929   0.947  -3.689  1.00  0.00     0.311 C
ATOM      4  O   UNL     1      -0.878  -0.253  -3.918  1.00  0.00    -0.252 OA
BRANCH   3   5
ATOM      5  C   UNL     1      -2.154   1.741  -3.966  1.00  0.00     0.113 C
ATOM      6  C   UNL     1      -2.935   2.269  -2.806  1.00  0.00     0.035 C
ATOM      7  C   UNL     1      -3.501   1.171  -3.658  1.00  0.00    -0.014 C
ATOM      8  C   UNL     1      -3.601  -0.187  -3.046  1.00  0.00     0.012 C
ATOM      9  C   UNL     1      -4.601   1.472  -4.620  1.00  0.00     0.012 C
BRANCH   6  10
ATOM     10  C   UNL     1      -2.454   1.988  -1.463  1.00  0.00     0.001 C
ATOM     11  Br  UNL     1      -3.006   4.596  -0.475  1.00  0.00    -0.043 Br
ATOM     12  C   UNL     1      -2.414   2.821  -0.409  1.00  0.00     0.057 C
ATOM     13  Br  UNL     1      -1.748   2.253   1.250  1.00  0.00    -0.043 Br
ENDBRANCH   6  10
ENDBRANCH   3   5
ENDBRANCH   2   3
ENDBRANCH   1   2
BRANCH   1  14
ATOM     14  C   UNL     1       0.280   4.103  -3.364  1.00  0.00     0.011 A
ATOM     15  C   UNL     1      -0.458   5.092  -4.016  1.00  0.00     0.055 A
ATOM     16  C   UNL     1       0.799   4.346  -2.092  1.00  0.00     0.009 A
ATOM     17  C   UNL     1      -0.675   6.322  -3.397  1.00  0.00     0.127 A
ATOM     18  C   UNL     1       0.582   5.577  -1.474  1.00  0.00     0.004 A
ATOM     19  C   UNL     1      -0.154   6.565  -2.126  1.00  0.00     0.047 A
BRANCH  17  20
ATOM     20  O   UNL     1      -1.394   7.287  -4.033  1.00  0.00    -0.457 OA
BRANCH  20  21
ATOM     21  C   UNL     1      -2.690   7.514  -3.600  1.00  0.00     0.127 A
ATOM     22  C   UNL     1      -3.025   8.758  -3.098  1.00  0.00     0.047 A
ATOM     23  C   UNL     1      -3.617   6.490  -3.682  1.00  0.00     0.047 A
ATOM     24  C   UNL     1      -4.330   8.987  -2.661  1.00  0.00     0.004 A
ATOM     25  C   UNL     1      -4.921   6.718  -3.246  1.00  0.00     0.004 A
ATOM     26  C   UNL     1      -5.279   7.966  -2.736  1.00  0.00     0.000 A
ENDBRANCH  20  21
ENDBRANCH  17  20
ENDBRANCH   1  14
BRANCH   1  27
ATOM     27  C   UNL     1       1.931   2.567  -4.370  1.00  0.00     0.113 C
ATOM     28  N   UNL     1       3.044   2.383  -4.639  1.00  0.00    -0.194 NA
ENDBRANCH   1  27
TORSDOF 8
ENDMDL
MODEL 2
REMARK VINA RESULT:    -6.550      2.355      6.060
REMARK INTER + INTRA:         -11.608
REMARK INTER:                 -10.995
REMARK INTRA:                  -0.613
REMARK UNBOUND:                -1.995
REMARK SMILES CC1(C)C(C=C(Br)Br)C1C(=O)OC(C#N)c1cccc(Oc2ccccc2)c1
REMARK SMILES IDX 13 1 12 2 10 3 11 4 9 5 4 6 2 7 1 8 3 9 5 10 7 11 6 12 8 13
REMARK SMILES IDX 16 14 28 15 17 16 20 17 18 18 19 19 21 20 22 21 23 22 27 23
REMARK SMILES IDX 24 24 26 25 25 26 14 27 15 28
REMARK H PARENT
REMARK Flexibility Score: inf
ROOT
ATOM      1  C   UNL     1       0.606   3.447  -2.217  1.00  0.00     0.309 C
ENDROOT
BRANCH   1   2
ATOM      2  O   UNL     1      -0.616   4.095  -2.595  1.00  0.00    -0.442 OA
BRANCH   2   3
ATOM      3  C   UNL     1      -1.318   4.655  -1.572  1.00  0.00     0.311 C
ATOM      4  O   UNL     1      -2.168   4.115  -0.880  1.00  0.00    -0.252 OA
BRANCH   3   5
ATOM      5  C   UNL     1      -0.930   6.074  -1.363  1.00  0.00     0.113 C
ATOM      6  C   UNL     1      -1.954   7.134  -1.615  1.00  0.00     0.035 C
ATOM      7  C   UNL     1      -0.778   6.989  -2.536  1.00  0.00    -0.014 C
ATOM      8  C   UNL     1      -1.046   6.472  -3.910  1.00  0.00     0.012 C
ATOM      9  C   UNL     1       0.333   7.984  -2.479  1.00  0.00     0.012 C
BRANCH   6  10
ATOM     10  C   UNL     1      -3.283   6.724  -2.043  1.00  0.00     0.001 C
ATOM     11  Br  UNL     1      -4.172   9.369  -2.583  1.00  0.00    -0.043 Br
ATOM     12  C   UNL     1      -4.293   7.505  -2.462  1.00  0.00     0.057 C
ATOM     13  Br  UNL     1      -5.939   6.767  -2.973  1.00  0.00    -0.043 Br
ENDBRANCH   6  10
ENDBRANCH   3   5
ENDBRANCH   2   3
ENDBRANCH   1   2
BRANCH   1  14
ATOM     14  C   UNL     1       0.318   2.076  -1.707  1.00  0.00     0.011 A
ATOM     15  C   UNL     1      -0.441   1.191  -2.474  1.00  0.00     0.055 A
ATOM     16  C   UNL     1       0.809   1.678  -0.464  1.00  0.00     0.009 A
ATOM     17  C   UNL     1      -0.710  -0.091  -1.996  1.00  0.00     0.127 A
ATOM     18  C   UNL     1       0.539   0.395   0.013  1.00  0.00     0.004 A
ATOM     19  C   UNL     1      -0.220  -0.489  -0.752  1.00  0.00     0.047 A
BRANCH  17  20
ATOM     20  O   UNL     1      -1.451  -0.955  -2.743  1.00  0.00    -0.457 OA
BRANCH  20  21
ATOM     21  C   UNL     1      -2.733  -0.565  -3.094  1.00  0.00     0.127 A
ATOM     22  C   UNL     1      -3.459   0.226  -2.223  1.00  0.00     0.047 A
ATOM     23  C   UNL     1      -3.255  -0.977  -4.308  1.00  0.00     0.047 A
ATOM     24  C   UNL     1      -4.751   0.619  -2.575  1.00  0.00     0.004 A
ATOM     25  C   UNL     1      -4.545  -0.585  -4.660  1.00  0.00     0.004 A
ATOM     26  C   UNL     1      -5.294   0.214  -3.795  1.00  0.00     0.000 A
ENDBRANCH  20  21
ENDBRANCH  17  20
ENDBRANCH   1  14
BRANCH   1  27
ATOM     27  C   UNL     1       1.533   3.442  -3.367  1.00  0.00     0.113 C
ATOM     28  N   UNL     1       2.252   3.439  -4.278  1.00  0.00    -0.194 NA
ENDBRANCH   1  27
TORSDOF 8
ENDMDL
MODEL 3
REMARK VINA RESULT:    -6.536      1.665      2.331
REMARK INTER + INTRA:         -11.587
REMARK INTER:                 -10.115
REMARK INTRA:                  -1.472
REMARK UNBOUND:                -1.995
REMARK SMILES CC1(C)C(C=C(Br)Br)C1C(=O)OC(C#N)c1cccc(Oc2ccccc2)c1
REMARK SMILES IDX 13 1 12 2 10 3 11 4 9 5 4 6 2 7 1 8 3 9 5 10 7 11 6 12 8 13
REMARK SMILES IDX 16 14 28 15 17 16 20 17 18 18 19 19 21 20 22 21 23 22 27 23
REMARK SMILES IDX 24 24 26 25 25 26 14 27 15 28
REMARK H PARENT
REMARK Flexibility Score: inf
ROOT
ATOM      1  C   UNL     1       1.052   3.276  -3.922  1.00  0.00     0.309 C
ENDROOT
BRANCH   1   2
ATOM      2  O   UNL     1       0.725   2.213  -3.016  1.00  0.00    -0.442 OA
BRANCH   2   3
ATOM      3  C   UNL     1      -0.580   1.830  -3.016  1.00  0.00     0.311 C
ATOM      4  O   UNL     1      -1.458   2.202  -3.782  1.00  0.00    -0.252 OA
BRANCH   3   5
ATOM      5  C   UNL     1      -0.859   0.857  -1.928  1.00  0.00     0.113 C
ATOM      6  C   UNL     1      -1.338   1.381  -0.612  1.00  0.00     0.035 C
ATOM      7  C   UNL     1       0.037   0.793  -0.733  1.00  0.00    -0.014 C
ATOM      8  C   UNL     1       1.193   1.732  -0.631  1.00  0.00     0.012 C
ATOM      9  C   UNL     1       0.316  -0.559  -0.166  1.00  0.00     0.012 C
BRANCH   6  10
ATOM     10  C   UNL     1      -1.517   2.817  -0.464  1.00  0.00     0.001 C
ATOM     11  Br  UNL     1      -4.184   2.815  -1.449  1.00  0.00    -0.043 Br
ATOM     12  C   UNL     1      -2.606   3.548  -0.758  1.00  0.00     0.057 C
ATOM     13  Br  UNL     1      -2.628   5.404  -0.488  1.00  0.00    -0.043 Br
ENDBRANCH   6  10
ENDBRANCH   3   5
ENDBRANCH   2   3
ENDBRANCH   1   2
BRANCH   1  14
ATOM     14  C   UNL     1       0.706   4.590  -3.310  1.00  0.00     0.011 A
ATOM     15  C   UNL     1      -0.138   5.474  -3.984  1.00  0.00     0.055 A
ATOM     16  C   UNL     1       1.225   4.936  -2.062  1.00  0.00     0.009 A
ATOM     17  C   UNL     1      -0.461   6.702  -3.410  1.00  0.00     0.127 A
ATOM     18  C   UNL     1       0.901   6.166  -1.489  1.00  0.00     0.004 A
ATOM     19  C   UNL     1       0.058   7.049  -2.163  1.00  0.00     0.047 A
BRANCH  17  20
ATOM     20  O   UNL     1      -1.284   7.566  -4.068  1.00  0.00    -0.457 OA
BRANCH  20  21
ATOM     21  C   UNL     1      -2.601   7.646  -3.647  1.00  0.00     0.127 A
ATOM     22  C   UNL     1      -3.022   8.771  -2.963  1.00  0.00     0.047 A
ATOM     23  C   UNL     1      -3.461   6.598  -3.921  1.00  0.00     0.047 A
ATOM     24  C   UNL     1      -4.349   8.853  -2.538  1.00  0.00     0.004 A
ATOM     25  C   UNL     1      -4.787   6.678  -3.496  1.00  0.00     0.004 A
ATOM     26  C   UNL     1      -5.232   7.806  -2.806  1.00  0.00     0.000 A
ENDBRANCH  20  21
ENDBRANCH  17  20
ENDBRANCH   1  14
BRANCH   1  27
ATOM     27  C   UNL     1       2.478   3.179  -4.293  1.00  0.00     0.113 C
ATOM     28  N   UNL     1       3.601   3.104  -4.575  1.00  0.00    -0.194 NA
ENDBRANCH   1  27
TORSDOF 8
ENDMDL
MODEL 4
REMARK VINA RESULT:    -6.435      4.230      5.857
REMARK INTER + INTRA:         -11.439
REMARK INTER:                 -10.304
REMARK INTRA:                  -1.135
REMARK UNBOUND:                -1.995
REMARK SMILES CC1(C)C(C=C(Br)Br)C1C(=O)OC(C#N)c1cccc(Oc2ccccc2)c1
REMARK SMILES IDX 13 1 12 2 10 3 11 4 9 5 4 6 2 7 1 8 3 9 5 10 7 11 6 12 8 13
REMARK SMILES IDX 16 14 28 15 17 16 20 17 18 18 19 19 21 20 22 21 23 22 27 23
REMARK SMILES IDX 24 24 26 25 25 26 14 27 15 28
REMARK H PARENT
REMARK Flexibility Score: inf
ROOT
ATOM      1  C   UNL     1      -4.385   1.650  -2.460  1.00  0.00     0.309 C
ENDROOT
BRANCH   1   2
ATOM      2  O   UNL     1      -3.029   1.762  -2.913  1.00  0.00    -0.442 OA
BRANCH   2   3
ATOM      3  C   UNL     1      -2.105   1.124  -2.145  1.00  0.00     0.311 C
ATOM      4  O   UNL     1      -1.482   0.111  -2.431  1.00  0.00    -0.252 OA
BRANCH   3   5
ATOM      5  C   UNL     1      -1.911   1.815  -0.844  1.00  0.00     0.113 C
ATOM      6  C   UNL     1      -0.983   2.986  -0.795  1.00  0.00     0.035 C
ATOM      7  C   UNL     1      -0.608   1.699  -0.122  1.00  0.00    -0.014 C
ATOM      8  C   UNL     1       0.501   0.907  -0.732  1.00  0.00     0.012 C
ATOM      9  C   UNL     1      -0.664   1.597   1.366  1.00  0.00     0.012 C
BRANCH   6  10
ATOM     10  C   UNL     1      -0.323   3.398  -2.024  1.00  0.00     0.001 C
ATOM     11  Br  UNL     1      -1.046   6.135  -1.764  1.00  0.00    -0.043 Br
ATOM     12  C   UNL     1      -0.257   4.631  -2.553  1.00  0.00     0.057 C
ATOM     13  Br  UNL     1       0.654   4.948  -4.162  1.00  0.00    -0.043 Br
ENDBRANCH   6  10
ENDBRANCH   3   5
ENDBRANCH   2   3
ENDBRANCH   1   2
BRANCH   1  14
ATOM     14  C   UNL     1      -5.036   2.991  -2.469  1.00  0.00     0.011 A
ATOM     15  C   UNL     1      -6.426   3.093  -2.401  1.00  0.00     0.055 A
ATOM     16  C   UNL     1      -4.255   4.145  -2.545  1.00  0.00     0.009 A
ATOM     17  C   UNL     1      -7.034   4.347  -2.409  1.00  0.00     0.127 A
ATOM     18  C   UNL     1      -4.865   5.399  -2.553  1.00  0.00     0.004 A
ATOM     19  C   UNL     1      -6.254   5.501  -2.486  1.00  0.00     0.047 A
BRANCH  17  20
ATOM     20  O   UNL     1      -8.391   4.447  -2.343  1.00  0.00    -0.457 OA
BRANCH  20  21
ATOM     21  C   UNL     1      -8.977   4.429  -1.088  1.00  0.00     0.127 A
ATOM     22  C   UNL     1      -8.863   5.543  -0.276  1.00  0.00     0.047 A
ATOM     23  C   UNL     1      -9.660   3.298  -0.679  1.00  0.00     0.047 A
ATOM     24  C   UNL     1      -9.453   5.525   0.989  1.00  0.00     0.004 A
ATOM     25  C   UNL     1     -10.248   3.280   0.585  1.00  0.00     0.004 A
ATOM     26  C   UNL     1     -10.147   4.394   1.419  1.00  0.00     0.000 A
ENDBRANCH  20  21
ENDBRANCH  17  20
ENDBRANCH   1  14
BRANCH   1  27
ATOM     27  C   UNL     1      -5.100   0.665  -3.297  1.00  0.00     0.113 C
ATOM     28  N   UNL     1      -5.665  -0.115  -3.945  1.00  0.00    -0.194 NA
ENDBRANCH   1  27
TORSDOF 8
ENDMDL
MODEL 5
REMARK VINA RESULT:    -6.408      2.884      4.777
REMARK INTER + INTRA:         -11.399
REMARK INTER:                  -9.853
REMARK INTRA:                  -1.546
REMARK UNBOUND:                -1.995
REMARK SMILES CC1(C)C(C=C(Br)Br)C1C(=O)OC(C#N)c1cccc(Oc2ccccc2)c1
REMARK SMILES IDX 13 1 12 2 10 3 11 4 9 5 4 6 2 7 1 8 3 9 5 10 7 11 6 12 8 13
REMARK SMILES IDX 16 14 28 15 17 16 20 17 18 18 19 19 21 20 22 21 23 22 27 23
REMARK SMILES IDX 24 24 26 25 25 26 14 27 15 28
REMARK H PARENT
REMARK Flexibility Score: inf
ROOT
ATOM      1  C   UNL     1      -4.452   1.216  -2.893  1.00  0.00     0.309 C
ENDROOT
BRANCH   1   2
ATOM      2  O   UNL     1      -3.108   1.312  -3.383  1.00  0.00    -0.442 OA
BRANCH   2   3
ATOM      3  C   UNL     1      -2.146   0.865  -2.533  1.00  0.00     0.311 C
ATOM      4  O   UNL     1      -1.389  -0.079  -2.707  1.00  0.00    -0.252 OA
BRANCH   3   5
ATOM      5  C   UNL     1      -2.097   1.682  -1.293  1.00  0.00     0.113 C
ATOM      6  C   UNL     1      -1.298   2.946  -1.307  1.00  0.00     0.035 C
ATOM      7  C   UNL     1      -0.830   1.768  -0.503  1.00  0.00    -0.014 C
ATOM      8  C   UNL     1       0.386   1.050  -0.985  1.00  0.00     0.012 C
ATOM      9  C   UNL     1      -0.959   1.789   0.984  1.00  0.00     0.012 C
BRANCH   6  10
ATOM     10  C   UNL     1      -0.615   3.319  -2.536  1.00  0.00     0.001 C
ATOM     11  Br  UNL     1       0.478   5.716  -1.469  1.00  0.00    -0.043 Br
ATOM     12  C   UNL     1       0.141   4.406  -2.763  1.00  0.00     0.057 C
ATOM     13  Br  UNL     1       0.938   4.699  -4.436  1.00  0.00    -0.043 Br
ENDBRANCH   6  10
ENDBRANCH   3   5
ENDBRANCH   2   3
ENDBRANCH   1   2
BRANCH   1  14
ATOM     14  C   UNL     1      -5.115   2.549  -2.959  1.00  0.00     0.011 A
ATOM     15  C   UNL     1      -4.589   3.550  -3.778  1.00  0.00     0.055 A
ATOM     16  C   UNL     1      -6.261   2.797  -2.204  1.00  0.00     0.009 A
ATOM     17  C   UNL     1      -5.210   4.797  -3.840  1.00  0.00     0.127 A
ATOM     18  C   UNL     1      -6.881   4.045  -2.267  1.00  0.00     0.004 A
ATOM     19  C   UNL     1      -6.355   5.045  -3.084  1.00  0.00     0.047 A
BRANCH  17  20
ATOM     20  O   UNL     1      -4.697   5.774  -4.638  1.00  0.00    -0.457 OA
BRANCH  20  21
ATOM     21  C   UNL     1      -3.736   6.611  -4.094  1.00  0.00     0.127 A
ATOM     22  C   UNL     1      -4.062   7.386  -2.996  1.00  0.00     0.047 A
ATOM     23  C   UNL     1      -2.476   6.649  -4.663  1.00  0.00     0.047 A
ATOM     24  C   UNL     1      -3.094   8.229  -2.448  1.00  0.00     0.004 A
ATOM     25  C   UNL     1      -1.509   7.492  -4.116  1.00  0.00     0.004 A
ATOM     26  C   UNL     1      -1.817   8.281  -3.008  1.00  0.00     0.000 A
ENDBRANCH  20  21
ENDBRANCH  17  20
ENDBRANCH   1  14
BRANCH   1  27
ATOM     27  C   UNL     1      -5.179   0.182  -3.658  1.00  0.00     0.113 C
ATOM     28  N   UNL     1      -5.757  -0.623  -4.262  1.00  0.00    -0.194 NA
ENDBRANCH   1  27
TORSDOF 8
ENDMDL
