MODEL 1
REMARK VINA RESULT:    -6.762      0.000      0.000
REMARK INTER + INTRA:         -11.408
REMARK INTER:                  -9.924
REMARK INTRA:                  -1.483
REMARK UNBOUND:                -1.483
REMARK SMILES CC1(C)C(C=C(Br)Br)C1C(=O)OC(C#N)c1cccc(Oc2ccccc2)c1
REMARK SMILES IDX 13 1 12 2 10 3 11 4 9 5 4 6 2 7 1 8 3 9 5 10 7 11 6 12 8 13
REMARK SMILES IDX 16 14 28 15 17 16 20 17 18 18 19 19 21 20 22 21 23 22 27 23
REMARK SMILES IDX 24 24 26 25 25 26 14 27 15 28
REMARK H PARENT
REMARK Flexibility Score: inf
ROOT
ATOM      1  C   UNL     1      -4.425   1.211  -2.836  1.00  0.00     0.309 C
ENDROOT
BRANCH   1   2
ATOM      2  O   UNL     1      -3.064   1.338  -3.272  1.00  0.00    -0.442 OA
BRANCH   2   3
ATOM      3  C   UNL     1      -2.131   0.847  -2.414  1.00  0.00     0.311 C
ATOM      4  O   UNL     1      -1.411  -0.126  -2.586  1.00  0.00    -0.252 OA
BRANCH   3   5
ATOM      5  C   UNL     1      -2.062   1.654  -1.168  1.00  0.00     0.113 C
ATOM      6  C   UNL     1      -1.192   2.870  -1.157  1.00  0.00     0.035 C
ATOM      7  C   UNL     1      -0.811   1.664  -0.350  1.00  0.00    -0.014 C
ATOM      8  C   UNL     1       0.373   0.879  -0.810  1.00  0.00     0.012 C
ATOM      9  C   UNL     1      -0.971   1.685   1.134  1.00  0.00     0.012 C
BRANCH   6  10
ATOM     10  C   UNL     1      -0.462   3.209  -2.369  1.00  0.00     0.001 C
ATOM     11  Br  UNL     1       0.348   5.769  -1.437  1.00  0.00    -0.043 Br
ATOM     12  C   UNL     1       0.212   4.340  -2.638  1.00  0.00     0.057 C
ATOM     13  Br  UNL     1       1.092   4.576  -4.277  1.00  0.00    -0.043 Br
ENDBRANCH   6  10
ENDBRANCH   3   5
ENDBRANCH   2   3
ENDBRANCH   1   2
BRANCH   1  14
ATOM     14  C   UNL     1      -5.107   2.534  -2.907  1.00  0.00     0.011 A
ATOM     15  C   UNL     1      -4.619   3.527  -3.759  1.00  0.00     0.055 A
ATOM     16  C   UNL     1      -6.235   2.780  -2.124  1.00  0.00     0.009 A
ATOM     17  C   UNL     1      -5.258   4.764  -3.825  1.00  0.00     0.127 A
ATOM     18  C   UNL     1      -6.873   4.019  -2.192  1.00  0.00     0.004 A
ATOM     19  C   UNL     1      -6.385   5.011  -3.042  1.00  0.00     0.047 A
BRANCH  17  20
ATOM     20  O   UNL     1      -4.782   5.733  -4.655  1.00  0.00    -0.457 OA
BRANCH  20  21
ATOM     21  C   UNL     1      -3.808   6.583  -4.158  1.00  0.00     0.127 A
ATOM     22  C   UNL     1      -4.146   7.491  -3.172  1.00  0.00     0.047 A
ATOM     23  C   UNL     1      -2.522   6.503  -4.663  1.00  0.00     0.047 A
ATOM     24  C   UNL     1      -3.165   8.348  -2.671  1.00  0.00     0.004 A
ATOM     25  C   UNL     1      -1.542   7.359  -4.163  1.00  0.00     0.004 A
ATOM     26  C   UNL     1      -1.862   8.282  -3.167  1.00  0.00     0.000 A
ENDBRANCH  20  21
ENDBRANCH  17  20
ENDBRANCH   1  14
BRANCH   1  27
ATOM     27  C   UNL     1      -5.103   0.178  -3.644  1.00  0.00     0.113 C
ATOM     28  N   UNL     1      -5.645  -0.628  -4.279  1.00  0.00    -0.194 NA
ENDBRANCH   1  27
TORSDOF 8
ENDMDL
MODEL 2
REMARK VINA RESULT:    -6.715      2.027      4.122
REMARK INTER + INTRA:         -11.339
REMARK INTER:                 -10.313
REMARK INTRA:                  -1.025
REMARK UNBOUND:                -1.483
REMARK SMILES CC1(C)C(C=C(Br)Br)C1C(=O)OC(C#N)c1cccc(Oc2ccccc2)c1
REMARK SMILES IDX 13 1 12 2 10 3 11 4 9 5 4 6 2 7 1 8 3 9 5 10 7 11 6 12 8 13
REMARK SMILES IDX 16 14 28 15 17 16 20 17 18 18 19 19 21 20 22 21 23 22 27 23
REMARK SMILES IDX 24 24 26 25 25 26 14 27 15 28
REMARK H PARENT
REMARK Flexibility Score: inf
ROOT
ATOM      1  C   UNL     1      -4.280   1.574  -2.445  1.00  0.00     0.309 C
ENDROOT
BRANCH   1   2
ATOM      2  O   UNL     1      -2.922   1.696  -2.890  1.00  0.00    -0.442 OA
BRANCH   2   3
ATOM      3  C   UNL     1      -1.994   1.098  -2.095  1.00  0.00     0.311 C
ATOM      4  O   UNL     1      -1.339   0.098  -2.352  1.00  0.00    -0.252 OA
BRANCH   3   5
ATOM      5  C   UNL     1      -1.842   1.818  -0.804  1.00  0.00     0.113 C
ATOM      6  C   UNL     1      -0.867   2.948  -0.733  1.00  0.00     0.035 C
ATOM      7  C   UNL     1      -0.587   1.666  -0.006  1.00  0.00    -0.014 C
ATOM      8  C   UNL     1       0.517   0.809  -0.531  1.00  0.00     0.012 C
ATOM      9  C   UNL     1      -0.730   1.610   1.478  1.00  0.00     0.012 C
BRANCH   6  10
ATOM     10  C   UNL     1      -0.121   3.295  -1.933  1.00  0.00     0.001 C
ATOM     11  Br  UNL     1      -0.961   6.011  -1.944  1.00  0.00    -0.043 Br
ATOM     12  C   UNL     1      -0.056   4.488  -2.549  1.00  0.00     0.057 C
ATOM     13  Br  UNL     1       0.974   4.722  -4.099  1.00  0.00    -0.043 Br
ENDBRANCH   6  10
ENDBRANCH   3   5
ENDBRANCH   2   3
ENDBRANCH   1   2
BRANCH   1  14
ATOM     14  C   UNL     1      -4.951   2.904  -2.487  1.00  0.00     0.011 A
ATOM     15  C   UNL     1      -6.341   2.988  -2.409  1.00  0.00     0.055 A
ATOM     16  C   UNL     1      -4.187   4.066  -2.602  1.00  0.00     0.009 A
ATOM     17  C   UNL     1      -6.968   4.233  -2.447  1.00  0.00     0.127 A
ATOM     18  C   UNL     1      -4.815   5.312  -2.640  1.00  0.00     0.004 A
ATOM     19  C   UNL     1      -6.205   5.395  -2.564  1.00  0.00     0.047 A
BRANCH  17  20
ATOM     20  O   UNL     1      -8.325   4.316  -2.373  1.00  0.00    -0.457 OA
BRANCH  20  21
ATOM     21  C   UNL     1      -8.897   4.384  -1.113  1.00  0.00     0.127 A
ATOM     22  C   UNL     1      -9.628   3.308  -0.646  1.00  0.00     0.047 A
ATOM     23  C   UNL     1      -8.721   5.527  -0.354  1.00  0.00     0.047 A
ATOM     24  C   UNL     1     -10.205   3.376   0.623  1.00  0.00     0.004 A
ATOM     25  C   UNL     1      -9.297   5.596   0.914  1.00  0.00     0.004 A
ATOM     26  C   UNL     1     -10.039   4.520   1.403  1.00  0.00     0.000 A
ENDBRANCH  20  21
ENDBRANCH  17  20
ENDBRANCH   1  14
BRANCH   1  27
ATOM     27  C   UNL     1      -4.974   0.562  -3.267  1.00  0.00     0.113 C
ATOM     28  N   UNL     1      -5.510  -0.235  -3.918  1.00  0.00    -0.194 NA
ENDBRANCH   1  27
TORSDOF 8
ENDMDL
MODEL 3
REMARK VINA RESULT:    -6.686      1.597      2.285
REMARK INTER + INTRA:         -11.296
REMARK INTER:                 -10.078
REMARK INTRA:                  -1.218
REMARK UNBOUND:                -1.483
REMARK SMILES CC1(C)C(C=C(Br)Br)C1C(=O)OC(C#N)c1cccc(Oc2ccccc2)c1
REMARK SMILES IDX 13 1 12 2 10 3 11 4 9 5 4 6 2 7 1 8 3 9 5 10 7 11 6 12 8 13
REMARK SMILES IDX 16 14 28 15 17 16 20 17 18 18 19 19 21 20 22 21 23 22 27 23
REMARK SMILES IDX 24 24 26 25 25 26 14 27 15 28
REMARK H PARENT
REMARK Flexibility Score: inf
ROOT
ATOM      1  C   UNL     1      -4.703   1.451  -2.896  1.00  0.00     0.309 C
ENDROOT
BRANCH   1   2
ATOM      2  O   UNL     1      -3.385   1.717  -3.396  1.00  0.00    -0.442 OA
BRANCH   2   3
ATOM      3  C   UNL     1      -2.420   1.851  -2.448  1.00  0.00     0.311 C
ATOM      4  O   UNL     1      -1.811   0.954  -1.883  1.00  0.00    -0.252 OA
BRANCH   3   5
ATOM      5  C   UNL     1      -2.156   3.282  -2.143  1.00  0.00     0.113 C
ATOM      6  C   UNL     1      -1.139   3.608  -1.097  1.00  0.00     0.035 C
ATOM      7  C   UNL     1      -2.594   3.861  -0.836  1.00  0.00    -0.014 C
ATOM      8  C   UNL     1      -3.272   2.985   0.164  1.00  0.00     0.012 C
ATOM      9  C   UNL     1      -3.118   5.258  -0.857  1.00  0.00     0.012 C
BRANCH   6  10
ATOM     10  C   UNL     1      -0.449   2.510  -0.436  1.00  0.00     0.001 C
ATOM     11  Br  UNL     1       1.952   2.821  -1.925  1.00  0.00    -0.043 Br
ATOM     12  C   UNL     1       0.800   2.067  -0.657  1.00  0.00     0.057 C
ATOM     13  Br  UNL     1       1.501   0.624   0.314  1.00  0.00    -0.043 Br
ENDBRANCH   6  10
ENDBRANCH   3   5
ENDBRANCH   2   3
ENDBRANCH   1   2
BRANCH   1  14
ATOM     14  C   UNL     1      -5.488   2.717  -2.836  1.00  0.00     0.011 A
ATOM     15  C   UNL     1      -5.102   3.816  -3.604  1.00  0.00     0.055 A
ATOM     16  C   UNL     1      -6.611   2.802  -2.013  1.00  0.00     0.009 A
ATOM     17  C   UNL     1      -5.838   4.999  -3.548  1.00  0.00     0.127 A
ATOM     18  C   UNL     1      -7.346   3.986  -1.957  1.00  0.00     0.004 A
ATOM     19  C   UNL     1      -6.960   5.085  -2.724  1.00  0.00     0.047 A
BRANCH  17  20
ATOM     20  O   UNL     1      -5.460   6.072  -4.296  1.00  0.00    -0.457 OA
BRANCH  20  21
ATOM     21  C   UNL     1      -4.407   6.842  -3.832  1.00  0.00     0.127 A
ATOM     22  C   UNL     1      -3.128   6.576  -4.284  1.00  0.00     0.047 A
ATOM     23  C   UNL     1      -4.662   7.857  -2.928  1.00  0.00     0.047 A
ATOM     24  C   UNL     1      -2.066   7.351  -3.816  1.00  0.00     0.004 A
ATOM     25  C   UNL     1      -3.601   8.632  -2.459  1.00  0.00     0.004 A
ATOM     26  C   UNL     1      -2.303   8.380  -2.904  1.00  0.00     0.000 A
ENDBRANCH  20  21
ENDBRANCH  17  20
ENDBRANCH   1  14
BRANCH   1  27
ATOM     27  C   UNL     1      -5.347   0.422  -3.736  1.00  0.00     0.113 C
ATOM     28  N   UNL     1      -5.852  -0.395  -4.389  1.00  0.00    -0.194 NA
ENDBRANCH   1  27
TORSDOF 8
ENDMDL
MODEL 4
REMARK VINA RESULT:    -6.666      2.024      5.247
REMARK INTER + INTRA:         -11.267
REMARK INTER:                 -10.455
REMARK INTRA:                  -0.812
REMARK UNBOUND:                -1.483
REMARK SMILES CC1(C)C(C=C(Br)Br)C1C(=O)OC(C#N)c1cccc(Oc2ccccc2)c1
REMARK SMILES IDX 13 1 12 2 10 3 11 4 9 5 4 6 2 7 1 8 3 9 5 10 7 11 6 12 8 13
REMARK SMILES IDX 16 14 28 15 17 16 20 17 18 18 19 19 21 20 22 21 23 22 27 23
REMARK SMILES IDX 24 24 26 25 25 26 14 27 15 28
REMARK H PARENT
REMARK Flexibility Score: inf
ROOT
ATOM      1  C   UNL     1      -4.172   0.990  -4.245  1.00  0.00     0.309 C
ENDROOT
BRANCH   1   2
ATOM      2  O   UNL     1      -4.755   2.072  -3.506  1.00  0.00    -0.442 OA
BRANCH   2   3
ATOM      3  C   UNL     1      -4.563   3.309  -4.037  1.00  0.00     0.311 C
ATOM      4  O   UNL     1      -3.588   3.700  -4.663  1.00  0.00    -0.252 OA
BRANCH   3   5
ATOM      5  C   UNL     1      -5.723   4.199  -3.768  1.00  0.00     0.113 C
ATOM      6  C   UNL     1      -5.453   5.615  -3.372  1.00  0.00     0.035 C
ATOM      7  C   UNL     1      -6.014   4.648  -2.372  1.00  0.00    -0.014 C
ATOM      8  C   UNL     1      -5.116   4.216  -1.260  1.00  0.00     0.012 C
ATOM      9  C   UNL     1      -7.450   4.742  -1.976  1.00  0.00     0.012 C
BRANCH   6  10
ATOM     10  C   UNL     1      -4.069   6.056  -3.278  1.00  0.00     0.001 C
ATOM     11  Br  UNL     1      -4.731   8.772  -2.766  1.00  0.00    -0.043 Br
ATOM     12  C   UNL     1      -3.612   7.297  -3.040  1.00  0.00     0.057 C
ATOM     13  Br  UNL     1      -1.772   7.651  -2.958  1.00  0.00    -0.043 Br
ENDBRANCH   6  10
ENDBRANCH   3   5
ENDBRANCH   2   3
ENDBRANCH   1   2
BRANCH   1  14
ATOM     14  C   UNL     1      -2.974   0.471  -3.527  1.00  0.00     0.011 A
ATOM     15  C   UNL     1      -2.527   1.103  -2.366  1.00  0.00     0.055 A
ATOM     16  C   UNL     1      -2.299  -0.648  -4.016  1.00  0.00     0.009 A
ATOM     17  C   UNL     1      -1.407   0.616  -1.694  1.00  0.00     0.127 A
ATOM     18  C   UNL     1      -1.178  -1.134  -3.343  1.00  0.00     0.004 A
ATOM     19  C   UNL     1      -0.731  -0.502  -2.183  1.00  0.00     0.047 A
BRANCH  17  20
ATOM     20  O   UNL     1      -0.970   1.232  -0.562  1.00  0.00    -0.457 OA
BRANCH  20  21
ATOM     21  C   UNL     1      -1.238   2.584  -0.421  1.00  0.00     0.127 A
ATOM     22  C   UNL     1      -2.240   2.986   0.443  1.00  0.00     0.047 A
ATOM     23  C   UNL     1      -0.496   3.498  -1.149  1.00  0.00     0.047 A
ATOM     24  C   UNL     1      -2.511   4.347   0.586  1.00  0.00     0.004 A
ATOM     25  C   UNL     1      -0.767   4.858  -1.007  1.00  0.00     0.004 A
ATOM     26  C   UNL     1      -1.773   5.284  -0.140  1.00  0.00     0.000 A
ENDBRANCH  20  21
ENDBRANCH  17  20
ENDBRANCH   1  14
BRANCH   1  27
ATOM     27  C   UNL     1      -5.194  -0.052  -4.474  1.00  0.00     0.113 C
ATOM     28  N   UNL     1      -6.003  -0.863  -4.658  1.00  0.00    -0.194 NA
ENDBRANCH   1  27
TORSDOF 8
ENDMDL
MODEL 5
REMARK VINA RESULT:    -6.589      2.726      5.038
REMARK INTER + INTRA:         -11.153
REMARK INTER:                  -9.932
REMARK INTRA:                  -1.221
REMARK UNBOUND:                -1.483
REMARK SMILES CC1(C)C(C=C(Br)Br)C1C(=O)OC(C#N)c1cccc(Oc2ccccc2)c1
REMARK SMILES IDX 13 1 12 2 10 3 11 4 9 5 4 6 2 7 1 8 3 9 5 10 7 11 6 12 8 13
REMARK SMILES IDX 16 14 28 15 17 16 20 17 18 18 19 19 21 20 22 21 23 22 27 23
REMARK SMILES IDX 24 24 26 25 25 26 14 27 15 28
REMARK H PARENT
REMARK Flexibility Score: inf
ROOT
ATOM      1  C   UNL     1      -0.468   1.674  -1.540  1.00  0.00     0.309 C
ENDROOT
BRANCH   1   2
ATOM      2  O   UNL     1      -1.708   2.001  -0.898  1.00  0.00    -0.442 OA
BRANCH   2   3
ATOM      3  C   UNL     1      -2.828   1.711  -1.614  1.00  0.00     0.311 C
ATOM      4  O   UNL     1      -3.987   1.912  -1.282  1.00  0.00    -0.252 OA
BRANCH   3   5
ATOM      5  C   UNL     1      -2.489   1.088  -2.920  1.00  0.00     0.113 C
ATOM      6  C   UNL     1      -3.233   1.540  -4.135  1.00  0.00     0.035 C
ATOM      7  C   UNL     1      -3.461   0.164  -3.582  1.00  0.00    -0.014 C
ATOM      8  C   UNL     1      -4.778  -0.103  -2.934  1.00  0.00     0.012 C
ATOM      9  C   UNL     1      -2.894  -1.021  -4.290  1.00  0.00     0.012 C
BRANCH   6  10
ATOM     10  C   UNL     1      -4.244   2.575  -3.983  1.00  0.00     0.001 C
ATOM     11  Br  UNL     1      -2.491   4.707  -4.663  1.00  0.00    -0.043 Br
ATOM     12  C   UNL     1      -4.103   3.900  -4.159  1.00  0.00     0.057 C
ATOM     13  Br  UNL     1      -5.548   5.068  -3.908  1.00  0.00    -0.043 Br
ENDBRANCH   6  10
ENDBRANCH   3   5
ENDBRANCH   2   3
ENDBRANCH   1   2
BRANCH   1  14
ATOM     14  C   UNL     1       0.096   2.885  -2.202  1.00  0.00     0.011 A
ATOM     15  C   UNL     1      -0.138   4.150  -1.661  1.00  0.00     0.055 A
ATOM     16  C   UNL     1       0.858   2.753  -3.363  1.00  0.00     0.009 A
ATOM     17  C   UNL     1       0.390   5.281  -2.280  1.00  0.00     0.127 A
ATOM     18  C   UNL     1       1.386   3.886  -3.982  1.00  0.00     0.004 A
ATOM     19  C   UNL     1       1.152   5.150  -3.441  1.00  0.00     0.047 A
BRANCH  17  20
ATOM     20  O   UNL     1       0.162   6.516  -1.753  1.00  0.00    -0.457 OA
BRANCH  20  21
ATOM     21  C   UNL     1      -0.993   7.176  -2.138  1.00  0.00     0.127 A
ATOM     22  C   UNL     1      -0.970   7.970  -3.270  1.00  0.00     0.047 A
ATOM     23  C   UNL     1      -2.140   7.025  -1.380  1.00  0.00     0.047 A
ATOM     24  C   UNL     1      -2.133   8.636  -3.658  1.00  0.00     0.004 A
ATOM     25  C   UNL     1      -3.303   7.690  -1.767  1.00  0.00     0.004 A
ATOM     26  C   UNL     1      -3.300   8.495  -2.906  1.00  0.00     0.000 A
ENDBRANCH  20  21
ENDBRANCH  17  20
ENDBRANCH   1  14
BRANCH   1  27
ATOM     27  C   UNL     1       0.456   1.086  -0.549  1.00  0.00     0.113 C
ATOM     28  N   UNL     1       1.188   0.619   0.221  1.00  0.00    -0.194 NA
ENDBRANCH   1  27
TORSDOF 8
ENDMDL
