MODEL 1
REMARK VINA RESULT:    -7.668      0.000      0.000
REMARK INTER + INTRA:         -11.815
REMARK INTER:                 -11.255
REMARK INTRA:                  -0.560
REMARK UNBOUND:                -0.560
REMARK SMILES CC1(C)C(C=C(Br)Br)C1C(=O)OC(C#N)c1cccc(Oc2ccccc2)c1
REMARK SMILES IDX 13 1 12 2 10 3 11 4 9 5 4 6 2 7 1 8 3 9 5 10 7 11 6 12 8 13
REMARK SMILES IDX 16 14 28 15 17 16 20 17 18 18 19 19 21 20 22 21 23 22 27 23
REMARK SMILES IDX 24 24 26 25 25 26 14 27 15 28
REMARK H PARENT
REMARK Flexibility Score: inf
ROOT
ATOM      1  C   UNL     1      -3.990   1.189  -4.027  1.00  0.00     0.309 C
ENDROOT
BRANCH   1   2
ATOM      2  O   UNL     1      -4.518   2.284  -3.266  1.00  0.00    -0.442 OA
BRANCH   2   3
ATOM      3  C   UNL     1      -4.458   3.498  -3.877  1.00  0.00     0.311 C
ATOM      4  O   UNL     1      -3.603   3.889  -4.659  1.00  0.00    -0.252 OA
BRANCH   3   5
ATOM      5  C   UNL     1      -5.601   4.361  -3.480  1.00  0.00     0.113 C
ATOM      6  C   UNL     1      -5.308   5.656  -2.793  1.00  0.00     0.035 C
ATOM      7  C   UNL     1      -5.945   4.529  -2.034  1.00  0.00    -0.014 C
ATOM      8  C   UNL     1      -5.115   3.846  -0.998  1.00  0.00     0.012 C
ATOM      9  C   UNL     1      -7.395   4.597  -1.686  1.00  0.00     0.012 C
BRANCH   6  10
ATOM     10  C   UNL     1      -3.918   6.013  -2.555  1.00  0.00     0.001 C
ATOM     11  Br  UNL     1      -4.363   8.812  -2.776  1.00  0.00    -0.043 Br
ATOM     12  C   UNL     1      -3.376   7.242  -2.518  1.00  0.00     0.057 C
ATOM     13  Br  UNL     1      -1.545   7.484  -2.193  1.00  0.00    -0.043 Br
ENDBRANCH   6  10
ENDBRANCH   3   5
ENDBRANCH   2   3
ENDBRANCH   1   2
BRANCH   1  14
ATOM     14  C   UNL     1      -2.799   0.618  -3.338  1.00  0.00     0.011 A
ATOM     15  C   UNL     1      -1.875   1.465  -2.724  1.00  0.00     0.055 A
ATOM     16  C   UNL     1      -2.607  -0.763  -3.305  1.00  0.00     0.009 A
ATOM     17  C   UNL     1      -0.760   0.930  -2.079  1.00  0.00     0.127 A
ATOM     18  C   UNL     1      -1.492  -1.297  -2.660  1.00  0.00     0.004 A
ATOM     19  C   UNL     1      -0.568  -0.451  -2.047  1.00  0.00     0.047 A
BRANCH  17  20
ATOM     20  O   UNL     1       0.142   1.756  -1.480  1.00  0.00    -0.457 OA
BRANCH  20  21
ATOM     21  C   UNL     1       0.568   1.426  -0.204  1.00  0.00     0.127 A
ATOM     22  C   UNL     1       1.920   1.259   0.032  1.00  0.00     0.047 A
ATOM     23  C   UNL     1      -0.370   1.272   0.801  1.00  0.00     0.047 A
ATOM     24  C   UNL     1       2.350   0.927   1.317  1.00  0.00     0.004 A
ATOM     25  C   UNL     1       0.059   0.939   2.085  1.00  0.00     0.004 A
ATOM     26  C   UNL     1       1.419   0.767   2.344  1.00  0.00     0.000 A
ENDBRANCH  20  21
ENDBRANCH  17  20
ENDBRANCH   1  14
BRANCH   1  27
ATOM     27  C   UNL     1      -5.054   0.188  -4.245  1.00  0.00     0.113 C
ATOM     28  N   UNL     1      -5.884  -0.606  -4.413  1.00  0.00    -0.194 NA
ENDBRANCH   1  27
TORSDOF 8
ENDMDL
MODEL 2
REMARK VINA RESULT:    -7.550      2.934      6.523
REMARK INTER + INTRA:         -11.642
REMARK INTER:                 -10.190
REMARK INTRA:                  -1.452
REMARK UNBOUND:                -0.560
REMARK SMILES CC1(C)C(C=C(Br)Br)C1C(=O)OC(C#N)c1cccc(Oc2ccccc2)c1
REMARK SMILES IDX 13 1 12 2 10 3 11 4 9 5 4 6 2 7 1 8 3 9 5 10 7 11 6 12 8 13
REMARK SMILES IDX 16 14 28 15 17 16 20 17 18 18 19 19 21 20 22 21 23 22 27 23
REMARK SMILES IDX 24 24 26 25 25 26 14 27 15 28
REMARK H PARENT
REMARK Flexibility Score: inf
ROOT
ATOM      1  C   UNL     1      -4.213   1.476  -2.705  1.00  0.00     0.309 C
ENDROOT
BRANCH   1   2
ATOM      2  O   UNL     1      -2.877   1.587  -3.213  1.00  0.00    -0.442 OA
BRANCH   2   3
ATOM      3  C   UNL     1      -1.892   1.269  -2.331  1.00  0.00     0.311 C
ATOM      4  O   UNL     1      -1.642   0.164  -1.871  1.00  0.00    -0.252 OA
BRANCH   3   5
ATOM      5  C   UNL     1      -1.096   2.466  -1.954  1.00  0.00     0.113 C
ATOM      6  C   UNL     1      -0.280   2.410  -0.702  1.00  0.00     0.035 C
ATOM      7  C   UNL     1      -1.496   3.288  -0.770  1.00  0.00    -0.014 C
ATOM      8  C   UNL     1      -2.680   2.879   0.040  1.00  0.00     0.012 C
ATOM      9  C   UNL     1      -1.335   4.767  -0.887  1.00  0.00     0.012 C
BRANCH   6  10
ATOM     10  C   UNL     1      -0.297   1.183   0.080  1.00  0.00     0.001 C
ATOM     11  Br  UNL     1       2.490   1.229   0.634  1.00  0.00    -0.043 Br
ATOM     12  C   UNL     1       0.737   0.576   0.685  1.00  0.00     0.057 C
ATOM     13  Br  UNL     1       0.495  -1.012   1.653  1.00  0.00    -0.043 Br
ENDBRANCH   6  10
ENDBRANCH   3   5
ENDBRANCH   2   3
ENDBRANCH   1   2
BRANCH   1  14
ATOM     14  C   UNL     1      -4.917   2.783  -2.837  1.00  0.00     0.011 A
ATOM     15  C   UNL     1      -4.310   3.837  -3.522  1.00  0.00     0.055 A
ATOM     16  C   UNL     1      -6.184   2.953  -2.278  1.00  0.00     0.009 A
ATOM     17  C   UNL     1      -4.970   5.059  -3.645  1.00  0.00     0.127 A
ATOM     18  C   UNL     1      -6.842   4.176  -2.402  1.00  0.00     0.004 A
ATOM     19  C   UNL     1      -6.235   5.230  -3.085  1.00  0.00     0.047 A
BRANCH  17  20
ATOM     20  O   UNL     1      -4.378   6.088  -4.312  1.00  0.00    -0.457 OA
BRANCH  20  21
ATOM     21  C   UNL     1      -3.329   6.742  -3.686  1.00  0.00     0.127 A
ATOM     22  C   UNL     1      -3.575   7.450  -2.524  1.00  0.00     0.047 A
ATOM     23  C   UNL     1      -2.063   6.670  -4.239  1.00  0.00     0.047 A
ATOM     24  C   UNL     1      -2.519   8.109  -1.893  1.00  0.00     0.004 A
ATOM     25  C   UNL     1      -1.008   7.329  -3.609  1.00  0.00     0.004 A
ATOM     26  C   UNL     1      -1.235   8.048  -2.435  1.00  0.00     0.000 A
ENDBRANCH  20  21
ENDBRANCH  17  20
ENDBRANCH   1  14
BRANCH   1  27
ATOM     27  C   UNL     1      -4.913   0.380  -3.406  1.00  0.00     0.113 C
ATOM     28  N   UNL     1      -5.462  -0.487  -3.948  1.00  0.00    -0.194 NA
ENDBRANCH   1  27
TORSDOF 8
ENDMDL
MODEL 3
REMARK VINA RESULT:    -7.331      3.220      7.552
REMARK INTER + INTRA:         -11.319
REMARK INTER:                 -10.532
REMARK INTRA:                  -0.787
REMARK UNBOUND:                -0.560
REMARK SMILES CC1(C)C(C=C(Br)Br)C1C(=O)OC(C#N)c1cccc(Oc2ccccc2)c1
REMARK SMILES IDX 13 1 12 2 10 3 11 4 9 5 4 6 2 7 1 8 3 9 5 10 7 11 6 12 8 13
REMARK SMILES IDX 16 14 28 15 17 16 20 17 18 18 19 19 21 20 22 21 23 22 27 23
REMARK SMILES IDX 24 24 26 25 25 26 14 27 15 28
REMARK H PARENT
REMARK Flexibility Score: inf
ROOT
ATOM      1  C   UNL     1      -4.144   1.727  -2.425  1.00  0.00     0.309 C
ENDROOT
BRANCH   1   2
ATOM      2  O   UNL     1      -2.854   1.855  -3.039  1.00  0.00    -0.442 OA
BRANCH   2   3
ATOM      3  C   UNL     1      -1.811   1.386  -2.303  1.00  0.00     0.311 C
ATOM      4  O   UNL     1      -1.656   0.246  -1.888  1.00  0.00    -0.252 OA
BRANCH   3   5
ATOM      5  C   UNL     1      -0.815   2.454  -2.033  1.00  0.00     0.113 C
ATOM      6  C   UNL     1       0.090   2.298  -0.854  1.00  0.00     0.035 C
ATOM      7  C   UNL     1      -0.981   3.349  -0.846  1.00  0.00    -0.014 C
ATOM      8  C   UNL     1      -2.137   3.141   0.074  1.00  0.00     0.012 C
ATOM      9  C   UNL     1      -0.611   4.784  -1.023  1.00  0.00     0.012 C
BRANCH   6  10
ATOM     10  C   UNL     1      -0.041   1.103  -0.034  1.00  0.00     0.001 C
ATOM     11  Br  UNL     1       2.636   1.186   0.918  1.00  0.00    -0.043 Br
ATOM     12  C   UNL     1       0.894   0.525   0.739  1.00  0.00     0.057 C
ATOM     13  Br  UNL     1       0.513  -1.025   1.724  1.00  0.00    -0.043 Br
ENDBRANCH   6  10
ENDBRANCH   3   5
ENDBRANCH   2   3
ENDBRANCH   1   2
BRANCH   1  14
ATOM     14  C   UNL     1      -4.873   3.025  -2.498  1.00  0.00     0.011 A
ATOM     15  C   UNL     1      -6.266   3.049  -2.424  1.00  0.00     0.055 A
ATOM     16  C   UNL     1      -4.162   4.217  -2.639  1.00  0.00     0.009 A
ATOM     17  C   UNL     1      -6.947   4.264  -2.492  1.00  0.00     0.127 A
ATOM     18  C   UNL     1      -4.844   5.432  -2.707  1.00  0.00     0.004 A
ATOM     19  C   UNL     1      -6.236   5.456  -2.634  1.00  0.00     0.047 A
BRANCH  17  20
ATOM     20  O   UNL     1      -8.306   4.288  -2.420  1.00  0.00    -0.457 OA
BRANCH  20  21
ATOM     21  C   UNL     1      -8.883   4.383  -1.164  1.00  0.00     0.127 A
ATOM     22  C   UNL     1      -9.606   3.312  -0.672  1.00  0.00     0.047 A
ATOM     23  C   UNL     1      -8.720   5.547  -0.434  1.00  0.00     0.047 A
ATOM     24  C   UNL     1     -10.188   3.408   0.593  1.00  0.00     0.004 A
ATOM     25  C   UNL     1      -9.301   5.643   0.830  1.00  0.00     0.004 A
ATOM     26  C   UNL     1     -10.034   4.573   1.345  1.00  0.00     0.000 A
ENDBRANCH  20  21
ENDBRANCH  17  20
ENDBRANCH   1  14
BRANCH   1  27
ATOM     27  C   UNL     1      -4.885   0.623  -3.069  1.00  0.00     0.113 C
ATOM     28  N   UNL     1      -5.458  -0.246  -3.582  1.00  0.00    -0.194 NA
ENDBRANCH   1  27
TORSDOF 8
ENDMDL
MODEL 4
REMARK VINA RESULT:    -7.178      3.257      6.924
REMARK INTER + INTRA:         -11.095
REMARK INTER:                  -9.234
REMARK INTRA:                  -1.860
REMARK UNBOUND:                -0.560
REMARK SMILES CC1(C)C(C=C(Br)Br)C1C(=O)OC(C#N)c1cccc(Oc2ccccc2)c1
REMARK SMILES IDX 13 1 12 2 10 3 11 4 9 5 4 6 2 7 1 8 3 9 5 10 7 11 6 12 8 13
REMARK SMILES IDX 16 14 28 15 17 16 20 17 18 18 19 19 21 20 22 21 23 22 27 23
REMARK SMILES IDX 24 24 26 25 25 26 14 27 15 28
REMARK H PARENT
REMARK Flexibility Score: inf
ROOT
ATOM      1  C   UNL     1       1.224   2.476  -2.977  1.00  0.00     0.309 C
ENDROOT
BRANCH   1   2
ATOM      2  O   UNL     1       1.294   2.873  -1.601  1.00  0.00    -0.442 OA
BRANCH   2   3
ATOM      3  C   UNL     1       1.825   1.950  -0.756  1.00  0.00     0.311 C
ATOM      4  O   UNL     1       2.902   2.011  -0.179  1.00  0.00    -0.252 OA
BRANCH   3   5
ATOM      5  C   UNL     1       0.918   0.784  -0.589  1.00  0.00     0.113 C
ATOM      6  C   UNL     1      -0.496   1.040  -0.176  1.00  0.00     0.035 C
ATOM      7  C   UNL     1       0.459   0.384   0.777  1.00  0.00    -0.014 C
ATOM      8  C   UNL     1       0.898   1.179   1.961  1.00  0.00     0.012 C
ATOM      9  C   UNL     1       0.344  -1.079   1.050  1.00  0.00     0.012 C
BRANCH   6  10
ATOM     10  C   UNL     1      -0.918   2.417   0.032  1.00  0.00     0.001 C
ATOM     11  Br  UNL     1      -3.541   2.005  -0.985  1.00  0.00    -0.043 Br
ATOM     12  C   UNL     1      -2.114   2.964  -0.244  1.00  0.00     0.057 C
ATOM     13  Br  UNL     1      -2.453   4.775   0.105  1.00  0.00    -0.043 Br
ENDBRANCH   6  10
ENDBRANCH   3   5
ENDBRANCH   2   3
ENDBRANCH   1   2
BRANCH   1  14
ATOM     14  C   UNL     1      -0.096   2.863  -3.551  1.00  0.00     0.011 A
ATOM     15  C   UNL     1      -0.366   4.201  -3.842  1.00  0.00     0.055 A
ATOM     16  C   UNL     1      -1.062   1.887  -3.799  1.00  0.00     0.009 A
ATOM     17  C   UNL     1      -1.601   4.562  -4.380  1.00  0.00     0.127 A
ATOM     18  C   UNL     1      -2.297   2.249  -4.337  1.00  0.00     0.004 A
ATOM     19  C   UNL     1      -2.567   3.587  -4.627  1.00  0.00     0.047 A
BRANCH  17  20
ATOM     20  O   UNL     1      -1.865   5.867  -4.663  1.00  0.00    -0.457 OA
BRANCH  20  21
ATOM     21  C   UNL     1      -2.318   6.671  -3.629  1.00  0.00     0.127 A
ATOM     22  C   UNL     1      -1.398   7.282  -2.799  1.00  0.00     0.047 A
ATOM     23  C   UNL     1      -3.680   6.840  -3.455  1.00  0.00     0.047 A
ATOM     24  C   UNL     1      -1.853   8.091  -1.757  1.00  0.00     0.004 A
ATOM     25  C   UNL     1      -4.136   7.648  -2.414  1.00  0.00     0.004 A
ATOM     26  C   UNL     1      -3.223   8.275  -1.565  1.00  0.00     0.000 A
ENDBRANCH  20  21
ENDBRANCH  17  20
ENDBRANCH   1  14
BRANCH   1  27
ATOM     27  C   UNL     1       2.359   3.066  -3.716  1.00  0.00     0.113 C
ATOM     28  N   UNL     1       3.255   3.519  -4.298  1.00  0.00    -0.194 NA
ENDBRANCH   1  27
TORSDOF 8
ENDMDL
MODEL 5
REMARK VINA RESULT:    -7.173      2.934      5.974
REMARK INTER + INTRA:         -11.088
REMARK INTER:                  -9.665
REMARK INTRA:                  -1.423
REMARK UNBOUND:                -0.560
REMARK SMILES CC1(C)C(C=C(Br)Br)C1C(=O)OC(C#N)c1cccc(Oc2ccccc2)c1
REMARK SMILES IDX 13 1 12 2 10 3 11 4 9 5 4 6 2 7 1 8 3 9 5 10 7 11 6 12 8 13
REMARK SMILES IDX 16 14 28 15 17 16 20 17 18 18 19 19 21 20 22 21 23 22 27 23
REMARK SMILES IDX 24 24 26 25 25 26 14 27 15 28
REMARK H PARENT
REMARK Flexibility Score: inf
ROOT
ATOM      1  C   UNL     1      -0.995   1.791  -1.350  1.00  0.00     0.309 C
ENDROOT
BRANCH   1   2
ATOM      2  O   UNL     1      -2.334   2.171  -1.003  1.00  0.00    -0.442 OA
BRANCH   2   3
ATOM      3  C   UNL     1      -3.317   1.527  -1.688  1.00  0.00     0.311 C
ATOM      4  O   UNL     1      -4.467   1.333  -1.319  1.00  0.00    -0.252 OA
BRANCH   3   5
ATOM      5  C   UNL     1      -2.833   1.051  -3.010  1.00  0.00     0.113 C
ATOM      6  C   UNL     1      -3.425   1.657  -4.241  1.00  0.00     0.035 C
ATOM      7  C   UNL     1      -3.729   0.232  -3.883  1.00  0.00    -0.014 C
ATOM      8  C   UNL     1      -5.116  -0.078  -3.427  1.00  0.00     0.012 C
ATOM      9  C   UNL     1      -3.093  -0.876  -4.654  1.00  0.00     0.012 C
BRANCH   6  10
ATOM     10  C   UNL     1      -4.439   2.690  -4.086  1.00  0.00     0.001 C
ATOM     11  Br  UNL     1      -2.665   4.835  -4.663  1.00  0.00    -0.043 Br
ATOM     12  C   UNL     1      -4.291   4.019  -4.222  1.00  0.00     0.057 C
ATOM     13  Br  UNL     1      -5.740   5.184  -3.977  1.00  0.00    -0.043 Br
ENDBRANCH   6  10
ENDBRANCH   3   5
ENDBRANCH   2   3
ENDBRANCH   1   2
BRANCH   1  14
ATOM     14  C   UNL     1      -0.316   2.912  -2.059  1.00  0.00     0.011 A
ATOM     15  C   UNL     1      -0.430   4.216  -1.574  1.00  0.00     0.055 A
ATOM     16  C   UNL     1       0.434   2.659  -3.207  1.00  0.00     0.009 A
ATOM     17  C   UNL     1       0.206   5.264  -2.238  1.00  0.00     0.127 A
ATOM     18  C   UNL     1       1.070   3.708  -3.870  1.00  0.00     0.004 A
ATOM     19  C   UNL     1       0.955   5.011  -3.386  1.00  0.00     0.047 A
BRANCH  17  20
ATOM     20  O   UNL     1       0.094   6.537  -1.766  1.00  0.00    -0.457 OA
BRANCH  20  21
ATOM     21  C   UNL     1      -1.025   7.264  -2.136  1.00  0.00     0.127 A
ATOM     22  C   UNL     1      -2.140   7.246  -1.318  1.00  0.00     0.047 A
ATOM     23  C   UNL     1      -0.998   7.990  -3.313  1.00  0.00     0.047 A
ATOM     24  C   UNL     1      -3.269   7.978  -1.690  1.00  0.00     0.004 A
ATOM     25  C   UNL     1      -2.126   8.722  -3.685  1.00  0.00     0.004 A
ATOM     26  C   UNL     1      -3.261   8.717  -2.874  1.00  0.00     0.000 A
ENDBRANCH  20  21
ENDBRANCH  17  20
ENDBRANCH   1  14
BRANCH   1  27
ATOM     27  C   UNL     1      -0.274   1.370  -0.131  1.00  0.00     0.113 C
ATOM     28  N   UNL     1       0.286   1.046   0.832  1.00  0.00    -0.194 NA
ENDBRANCH   1  27
TORSDOF 8
ENDMDL
