MODEL 1
REMARK VINA RESULT:    -6.217      0.000      0.000
REMARK INTER + INTRA:          -7.941
REMARK INTER:                  -7.308
REMARK INTRA:                  -0.633
REMARK UNBOUND:                -0.633
REMARK SMILES Clc1ccc(C(c2ccc(Cl)cc2)C(Cl)(Cl)Cl)cc1
REMARK SMILES IDX 6 1 14 2 15 3 16 4 17 5 5 6 4 7 18 8 3 9 19 10 2 11 1 12
REMARK SMILES IDX 7 13 8 14 13 15 9 16 12 17 10 18 11 19
REMARK H PARENT
REMARK Flexibility Score: inf
ROOT
ATOM      1  C   UNL     1      -1.283   2.000  -1.200  1.00  0.00     0.101 C 
ENDROOT
BRANCH   1   2
ATOM      2  C   UNL     1      -1.699   1.154  -2.476  1.00  0.00     0.201 C 
ATOM      3  Cl  UNL     1      -0.997   1.748  -4.016  1.00  0.00    -0.083 Cl
ATOM      4  Cl  UNL     1      -3.501   1.222  -2.679  1.00  0.00    -0.083 Cl
ATOM      5  Cl  UNL     1      -1.285  -0.593  -2.302  1.00  0.00    -0.083 Cl
ENDBRANCH   1   2
BRANCH   1   6
ATOM      6  C   UNL     1      -1.698   3.432  -1.212  1.00  0.00    -0.036 A 
ATOM      7  C   UNL     1      -1.575   4.184  -2.380  1.00  0.00     0.006 A 
ATOM      8  C   UNL     1      -2.207   4.021  -0.054  1.00  0.00     0.006 A 
ATOM      9  C   UNL     1      -1.962   5.525  -2.391  1.00  0.00     0.021 A 
ATOM     10  C   UNL     1      -2.595   5.360  -0.064  1.00  0.00     0.021 A 
ATOM     11  C   UNL     1      -2.473   6.112  -1.232  1.00  0.00     0.041 A 
ATOM     12  Cl  UNL     1      -2.950   7.766  -1.245  1.00  0.00    -0.084 Cl
ENDBRANCH   1   6
BRANCH   1  13
ATOM     13  C   UNL     1       0.164   1.799  -0.684  1.00  0.00    -0.036 A 
ATOM     14  C   UNL     1       0.338   1.102   0.479  1.00  0.00     0.006 A 
ATOM     15  C   UNL     1       1.185   2.332  -1.421  1.00  0.00     0.006 A 
ATOM     16  C   UNL     1       1.641   0.923   0.943  1.00  0.00     0.021 A 
ATOM     17  C   UNL     1       2.488   2.154  -0.955  1.00  0.00     0.021 A 
ATOM     18  C   UNL     1       2.716   1.449   0.227  1.00  0.00     0.041 A 
ATOM     19  Cl  UNL     1       4.324   1.229   0.801  1.00  0.00    -0.084 Cl
ENDBRANCH   1  13
TORSDOF 3
ENDMDL
MODEL 2
REMARK VINA RESULT:    -6.209      0.056      1.569
REMARK INTER + INTRA:          -7.931
REMARK INTER:                  -7.308
REMARK INTRA:                  -0.623
REMARK UNBOUND:                -0.633
REMARK SMILES Clc1ccc(C(c2ccc(Cl)cc2)C(Cl)(Cl)Cl)cc1
REMARK SMILES IDX 6 1 14 2 15 3 16 4 17 5 5 6 4 7 18 8 3 9 19 10 2 11 1 12
REMARK SMILES IDX 7 13 8 14 13 15 9 16 12 17 10 18 11 19
REMARK H PARENT
REMARK Flexibility Score: inf
ROOT
ATOM      1  C   UNL     1      -1.289   1.963  -1.172  1.00  0.00     0.101 C 
ENDROOT
BRANCH   1   2
ATOM      2  C   UNL     1      -1.698   1.111  -2.446  1.00  0.00     0.201 C 
ATOM      3  Cl  UNL     1      -1.019   1.720  -3.989  1.00  0.00    -0.083 Cl
ATOM      4  Cl  UNL     1      -3.502   1.142  -2.635  1.00  0.00    -0.083 Cl
ATOM      5  Cl  UNL     1      -1.247  -0.629  -2.277  1.00  0.00    -0.083 Cl
ENDBRANCH   1   2
BRANCH   1   6
ATOM      6  C   UNL     1      -1.707   3.394  -1.192  1.00  0.00    -0.036 A 
ATOM      7  C   UNL     1      -2.237   3.982  -0.043  1.00  0.00     0.006 A 
ATOM      8  C   UNL     1      -1.569   4.145  -2.359  1.00  0.00     0.006 A 
ATOM      9  C   UNL     1      -2.628   5.321  -0.062  1.00  0.00     0.021 A 
ATOM     10  C   UNL     1      -1.959   5.484  -2.378  1.00  0.00     0.021 A 
ATOM     11  C   UNL     1      -2.489   6.072  -1.230  1.00  0.00     0.041 A 
ATOM     12  Cl  UNL     1      -2.973   7.724  -1.253  1.00  0.00    -0.084 Cl
ENDBRANCH   1   6
BRANCH   1  13
ATOM     13  C   UNL     1       0.155   1.767  -0.647  1.00  0.00    -0.036 A 
ATOM     14  C   UNL     1       1.181   2.275  -1.393  1.00  0.00     0.006 A 
ATOM     15  C   UNL     1       0.322   1.095   0.532  1.00  0.00     0.006 A 
ATOM     16  C   UNL     1       2.482   2.097  -0.921  1.00  0.00     0.021 A 
ATOM     17  C   UNL     1       1.623   0.916   1.003  1.00  0.00     0.021 A 
ATOM     18  C   UNL     1       2.702   1.418   0.277  1.00  0.00     0.041 A 
ATOM     19  Cl  UNL     1       4.307   1.197   0.859  1.00  0.00    -0.084 Cl
ENDBRANCH   1  13
TORSDOF 3
ENDMDL
MODEL 3
REMARK VINA RESULT:    -5.961      2.325      4.885
REMARK INTER + INTRA:          -7.639
REMARK INTER:                  -7.044
REMARK INTRA:                  -0.596
REMARK UNBOUND:                -0.633
REMARK SMILES Clc1ccc(C(c2ccc(Cl)cc2)C(Cl)(Cl)Cl)cc1
REMARK SMILES IDX 6 1 14 2 15 3 16 4 17 5 5 6 4 7 18 8 3 9 19 10 2 11 1 12
REMARK SMILES IDX 7 13 8 14 13 15 9 16 12 17 10 18 11 19
REMARK H PARENT
REMARK Flexibility Score: inf
ROOT
ATOM      1  C   UNL     1      -0.186   1.449  -1.800  1.00  0.00     0.101 C 
ENDROOT
BRANCH   1   2
ATOM      2  C   UNL     1       0.188   0.933  -0.348  1.00  0.00     0.201 C 
ATOM      3  Cl  UNL     1      -0.838   1.604   0.961  1.00  0.00    -0.083 Cl
ATOM      4  Cl  UNL     1       1.892   1.418   0.042  1.00  0.00    -0.083 Cl
ATOM      5  Cl  UNL     1       0.146  -0.868  -0.232  1.00  0.00    -0.083 Cl
ENDBRANCH   1   2
BRANCH   1   6
ATOM      6  C   UNL     1      -0.097   2.924  -2.003  1.00  0.00    -0.036 A 
ATOM      7  C   UNL     1      -0.599   3.792  -1.035  1.00  0.00     0.006 A 
ATOM      8  C   UNL     1       0.487   3.435  -3.163  1.00  0.00     0.006 A 
ATOM      9  C   UNL     1      -0.518   5.172  -1.225  1.00  0.00     0.021 A 
ATOM     10  C   UNL     1       0.569   4.815  -3.353  1.00  0.00     0.021 A 
ATOM     11  C   UNL     1       0.067   5.683  -2.384  1.00  0.00     0.041 A 
ATOM     12  Cl  UNL     1       0.167   7.385  -2.619  1.00  0.00    -0.084 Cl
ENDBRANCH   1   6
BRANCH   1  13
ATOM     13  C   UNL     1      -1.450   0.830  -2.447  1.00  0.00    -0.036 A 
ATOM     14  C   UNL     1      -1.276  -0.140  -3.393  1.00  0.00     0.006 A 
ATOM     15  C   UNL     1      -2.670   1.291  -2.034  1.00  0.00     0.006 A 
ATOM     16  C   UNL     1      -2.414  -0.696  -3.976  1.00  0.00     0.021 A 
ATOM     17  C   UNL     1      -3.808   0.735  -2.618  1.00  0.00     0.021 A 
ATOM     18  C   UNL     1      -3.681  -0.259  -3.588  1.00  0.00     0.041 A 
ATOM     19  Cl  UNL     1      -5.086  -0.944  -4.308  1.00  0.00    -0.084 Cl
ENDBRANCH   1  13
TORSDOF 3
ENDMDL
MODEL 4
REMARK VINA RESULT:    -5.843      2.646      3.952
REMARK INTER + INTRA:          -7.501
REMARK INTER:                  -7.158
REMARK INTRA:                  -0.343
REMARK UNBOUND:                -0.633
REMARK SMILES Clc1ccc(C(c2ccc(Cl)cc2)C(Cl)(Cl)Cl)cc1
REMARK SMILES IDX 6 1 14 2 15 3 16 4 17 5 5 6 4 7 18 8 3 9 19 10 2 11 1 12
REMARK SMILES IDX 7 13 8 14 13 15 9 16 12 17 10 18 11 19
REMARK H PARENT
REMARK Flexibility Score: inf
ROOT
ATOM      1  C   UNL     1      -4.561   3.976  -1.691  1.00  0.00     0.101 C 
ENDROOT
BRANCH   1   2
ATOM      2  C   UNL     1      -5.461   3.111  -2.669  1.00  0.00     0.201 C 
ATOM      3  Cl  UNL     1      -5.266   3.519  -4.405  1.00  0.00    -0.083 Cl
ATOM      4  Cl  UNL     1      -7.211   3.385  -2.275  1.00  0.00    -0.083 Cl
ATOM      5  Cl  UNL     1      -5.179   1.340  -2.469  1.00  0.00    -0.083 Cl
ENDBRANCH   1   2
BRANCH   1   6
ATOM      6  C   UNL     1      -4.472   5.430  -2.012  1.00  0.00    -0.036 A 
ATOM      7  C   UNL     1      -3.307   6.138  -1.719  1.00  0.00     0.006 A 
ATOM      8  C   UNL     1      -5.555   6.082  -2.603  1.00  0.00     0.006 A 
ATOM      9  C   UNL     1      -3.223   7.498  -2.018  1.00  0.00     0.021 A 
ATOM     10  C   UNL     1      -5.471   7.441  -2.903  1.00  0.00     0.021 A 
ATOM     11  C   UNL     1      -4.306   8.150  -2.610  1.00  0.00     0.041 A 
ATOM     12  Cl  UNL     1      -4.204   9.828  -2.979  1.00  0.00    -0.084 Cl
ENDBRANCH   1   6
BRANCH   1  13
ATOM     13  C   UNL     1      -3.194   3.365  -1.293  1.00  0.00    -0.036 A 
ATOM     14  C   UNL     1      -2.256   3.201  -2.274  1.00  0.00     0.006 A 
ATOM     15  C   UNL     1      -3.004   3.024   0.017  1.00  0.00     0.006 A 
ATOM     16  C   UNL     1      -1.027   2.650  -1.915  1.00  0.00     0.021 A 
ATOM     17  C   UNL     1      -1.774   2.471   0.376  1.00  0.00     0.021 A 
ATOM     18  C   UNL     1      -0.785   2.285  -0.590  1.00  0.00     0.041 A 
ATOM     19  Cl  UNL     1       0.732   1.604  -0.148  1.00  0.00    -0.084 Cl
ENDBRANCH   1  13
TORSDOF 3
ENDMDL
MODEL 5
REMARK VINA RESULT:    -5.799      1.127      5.367
REMARK INTER + INTRA:          -7.449
REMARK INTER:                  -6.796
REMARK INTRA:                  -0.653
REMARK UNBOUND:                -0.633
REMARK SMILES Clc1ccc(C(c2ccc(Cl)cc2)C(Cl)(Cl)Cl)cc1
REMARK SMILES IDX 6 1 14 2 15 3 16 4 17 5 5 6 4 7 18 8 3 9 19 10 2 11 1 12
REMARK SMILES IDX 7 13 8 14 13 15 9 16 12 17 10 18 11 19
REMARK H PARENT
REMARK Flexibility Score: inf
ROOT
ATOM      1  C   UNL     1      -0.761   2.706  -2.434  1.00  0.00     0.101 C 
ENDROOT
BRANCH   1   2
ATOM      2  C   UNL     1      -1.801   1.727  -3.121  1.00  0.00     0.201 C 
ATOM      3  Cl  UNL     1      -3.184   1.268  -2.075  1.00  0.00    -0.083 Cl
ATOM      4  Cl  UNL     1      -0.965   0.179  -3.566  1.00  0.00    -0.083 Cl
ATOM      5  Cl  UNL     1      -2.456   2.397  -4.663  1.00  0.00    -0.083 Cl
ENDBRANCH   1   2
BRANCH   1   6
ATOM      6  C   UNL     1       0.025   2.126  -1.307  1.00  0.00    -0.036 A 
ATOM      7  C   UNL     1       1.419   2.134  -1.352  1.00  0.00     0.006 A 
ATOM      8  C   UNL     1      -0.634   1.575  -0.208  1.00  0.00     0.006 A 
ATOM      9  C   UNL     1       2.154   1.590  -0.299  1.00  0.00     0.021 A 
ATOM     10  C   UNL     1       0.101   1.032   0.846  1.00  0.00     0.021 A 
ATOM     11  C   UNL     1       1.495   1.039   0.801  1.00  0.00     0.041 A 
ATOM     12  Cl  UNL     1       2.402   0.368   2.101  1.00  0.00    -0.084 Cl
ENDBRANCH   1   6
BRANCH   1  13
ATOM     13  C   UNL     1      -1.260   4.144  -2.140  1.00  0.00    -0.036 A 
ATOM     14  C   UNL     1      -2.407   4.286  -1.412  1.00  0.00     0.006 A 
ATOM     15  C   UNL     1      -0.524   5.188  -2.626  1.00  0.00     0.006 A 
ATOM     16  C   UNL     1      -2.857   5.579  -1.149  1.00  0.00     0.021 A 
ATOM     17  C   UNL     1      -0.974   6.482  -2.364  1.00  0.00     0.021 A 
ATOM     18  C   UNL     1      -2.140   6.678  -1.624  1.00  0.00     0.041 A 
ATOM     19  Cl  UNL     1      -2.695   8.274  -1.300  1.00  0.00    -0.084 Cl
ENDBRANCH   1  13
TORSDOF 3
ENDMDL
