MODEL 1
REMARK VINA RESULT:    -6.191      0.000      0.000
REMARK INTER + INTRA:          -7.903
REMARK INTER:                  -7.277
REMARK INTRA:                  -0.626
REMARK UNBOUND:                -0.626
REMARK SMILES Clc1ccc(C(c2ccc(Cl)cc2)C(Cl)(Cl)Cl)cc1
REMARK SMILES IDX 6 1 14 2 15 3 16 4 17 5 5 6 4 7 18 8 3 9 19 10 2 11 1 12
REMARK SMILES IDX 7 13 8 14 13 15 9 16 12 17 10 18 11 19
REMARK H PARENT
REMARK Flexibility Score: inf
ROOT
ATOM      1  C   UNL     1      -1.280   1.967  -1.231  1.00  0.00     0.101 C 
ENDROOT
BRANCH   1   2
ATOM      2  C   UNL     1      -1.689   1.106  -2.498  1.00  0.00     0.201 C 
ATOM      3  Cl  UNL     1      -1.023   1.713  -4.049  1.00  0.00    -0.083 Cl
ATOM      4  Cl  UNL     1      -3.495   1.125  -2.679  1.00  0.00    -0.083 Cl
ATOM      5  Cl  UNL     1      -1.227  -0.629  -2.324  1.00  0.00    -0.083 Cl
ENDBRANCH   1   2
BRANCH   1   6
ATOM      6  C   UNL     1      -1.711   3.394  -1.253  1.00  0.00    -0.036 A 
ATOM      7  C   UNL     1      -2.176   4.000  -0.086  1.00  0.00     0.006 A 
ATOM      8  C   UNL     1      -1.650   4.124  -2.441  1.00  0.00     0.006 A 
ATOM      9  C   UNL     1      -2.581   5.335  -0.107  1.00  0.00     0.021 A 
ATOM     10  C   UNL     1      -2.053   5.458  -2.462  1.00  0.00     0.021 A 
ATOM     11  C   UNL     1      -2.519   6.064  -1.295  1.00  0.00     0.041 A 
ATOM     12  Cl  UNL     1      -3.018   7.711  -1.321  1.00  0.00    -0.084 Cl
ENDBRANCH   1   6
BRANCH   1  13
ATOM     13  C   UNL     1       0.171   1.786  -0.716  1.00  0.00    -0.036 A 
ATOM     14  C   UNL     1       1.184   2.330  -1.455  1.00  0.00     0.006 A 
ATOM     15  C   UNL     1       0.355   1.092   0.447  1.00  0.00     0.006 A 
ATOM     16  C   UNL     1       2.489   2.166  -0.993  1.00  0.00     0.021 A 
ATOM     17  C   UNL     1       1.661   0.928   0.909  1.00  0.00     0.021 A 
ATOM     18  C   UNL     1       2.728   1.465   0.189  1.00  0.00     0.041 A 
ATOM     19  Cl  UNL     1       4.339   1.262   0.760  1.00  0.00    -0.084 Cl
ENDBRANCH   1  13
TORSDOF 3
ENDMDL
MODEL 2
REMARK VINA RESULT:    -6.181      0.039      1.568
REMARK INTER + INTRA:          -7.891
REMARK INTER:                  -7.263
REMARK INTRA:                  -0.628
REMARK UNBOUND:                -0.626
REMARK SMILES Clc1ccc(C(c2ccc(Cl)cc2)C(Cl)(Cl)Cl)cc1
REMARK SMILES IDX 6 1 14 2 15 3 16 4 17 5 5 6 4 7 18 8 3 9 19 10 2 11 1 12
REMARK SMILES IDX 7 13 8 14 13 15 9 16 12 17 10 18 11 19
REMARK H PARENT
REMARK Flexibility Score: inf
ROOT
ATOM      1  C   UNL     1      -1.285   1.969  -1.236  1.00  0.00     0.101 C 
ENDROOT
BRANCH   1   2
ATOM      2  C   UNL     1      -1.698   1.120  -2.510  1.00  0.00     0.201 C 
ATOM      3  Cl  UNL     1      -0.992   1.708  -4.050  1.00  0.00    -0.083 Cl
ATOM      4  Cl  UNL     1      -3.500   1.188  -2.718  1.00  0.00    -0.083 Cl
ATOM      5  Cl  UNL     1      -1.286  -0.627  -2.330  1.00  0.00    -0.083 Cl
ENDBRANCH   1   2
BRANCH   1   6
ATOM      6  C   UNL     1      -1.702   3.401  -1.251  1.00  0.00    -0.036 A 
ATOM      7  C   UNL     1      -1.635   4.134  -2.435  1.00  0.00     0.006 A 
ATOM      8  C   UNL     1      -2.159   4.007  -0.080  1.00  0.00     0.006 A 
ATOM      9  C   UNL     1      -2.025   5.474  -2.449  1.00  0.00     0.021 A 
ATOM     10  C   UNL     1      -2.549   5.346  -0.094  1.00  0.00     0.021 A 
ATOM     11  C   UNL     1      -2.482   6.080  -1.278  1.00  0.00     0.041 A 
ATOM     12  Cl  UNL     1      -2.962   7.733  -1.295  1.00  0.00    -0.084 Cl
ENDBRANCH   1   6
BRANCH   1  13
ATOM     13  C   UNL     1       0.162   1.772  -0.718  1.00  0.00    -0.036 A 
ATOM     14  C   UNL     1       0.336   1.086   0.451  1.00  0.00     0.006 A 
ATOM     15  C   UNL     1       1.183   2.298  -1.460  1.00  0.00     0.006 A 
ATOM     16  C   UNL     1       1.638   0.911   0.917  1.00  0.00     0.021 A 
ATOM     17  C   UNL     1       2.486   2.123  -0.993  1.00  0.00     0.021 A 
ATOM     18  C   UNL     1       2.714   1.428   0.195  1.00  0.00     0.041 A 
ATOM     19  Cl  UNL     1       4.321   1.212   0.771  1.00  0.00    -0.084 Cl
ENDBRANCH   1  13
TORSDOF 3
ENDMDL
MODEL 3
REMARK VINA RESULT:    -5.940      2.337      4.849
REMARK INTER + INTRA:          -7.608
REMARK INTER:                  -7.002
REMARK INTRA:                  -0.607
REMARK UNBOUND:                -0.626
REMARK SMILES Clc1ccc(C(c2ccc(Cl)cc2)C(Cl)(Cl)Cl)cc1
REMARK SMILES IDX 6 1 14 2 15 3 16 4 17 5 5 6 4 7 18 8 3 9 19 10 2 11 1 12
REMARK SMILES IDX 7 13 8 14 13 15 9 16 12 17 10 18 11 19
REMARK H PARENT
REMARK Flexibility Score: inf
ROOT
ATOM      1  C   UNL     1      -0.208   1.448  -1.807  1.00  0.00     0.101 C 
ENDROOT
BRANCH   1   2
ATOM      2  C   UNL     1       0.174   0.943  -0.353  1.00  0.00     0.201 C 
ATOM      3  Cl  UNL     1      -0.852   1.617   0.955  1.00  0.00    -0.083 Cl
ATOM      4  Cl  UNL     1       1.876   1.441   0.028  1.00  0.00    -0.083 Cl
ATOM      5  Cl  UNL     1       0.144  -0.857  -0.225  1.00  0.00    -0.083 Cl
ENDBRANCH   1   2
BRANCH   1   6
ATOM      6  C   UNL     1      -0.114   2.920  -2.025  1.00  0.00    -0.036 A 
ATOM      7  C   UNL     1       0.445   3.416  -3.202  1.00  0.00     0.006 A 
ATOM      8  C   UNL     1      -0.584   3.801  -1.050  1.00  0.00     0.006 A 
ATOM      9  C   UNL     1       0.534   4.794  -3.405  1.00  0.00     0.021 A 
ATOM     10  C   UNL     1      -0.496   5.178  -1.253  1.00  0.00     0.021 A 
ATOM     11  C   UNL     1       0.064   5.674  -2.430  1.00  0.00     0.041 A 
ATOM     12  Cl  UNL     1       0.174   7.374  -2.681  1.00  0.00    -0.084 Cl
ENDBRANCH   1   6
BRANCH   1  13
ATOM     13  C   UNL     1      -1.480   0.828  -2.438  1.00  0.00    -0.036 A 
ATOM     14  C   UNL     1      -1.317  -0.151  -3.377  1.00  0.00     0.006 A 
ATOM     15  C   UNL     1      -2.694   1.298  -2.021  1.00  0.00     0.006 A 
ATOM     16  C   UNL     1      -2.463  -0.707  -3.946  1.00  0.00     0.021 A 
ATOM     17  C   UNL     1      -3.840   0.743  -2.591  1.00  0.00     0.021 A 
ATOM     18  C   UNL     1      -3.724  -0.261  -3.553  1.00  0.00     0.041 A 
ATOM     19  Cl  UNL     1      -5.138  -0.946  -4.255  1.00  0.00    -0.084 Cl
ENDBRANCH   1  13
TORSDOF 3
ENDMDL
MODEL 4
REMARK VINA RESULT:    -5.903      2.721      4.011
REMARK INTER + INTRA:          -7.565
REMARK INTER:                  -7.221
REMARK INTRA:                  -0.344
REMARK UNBOUND:                -0.626
REMARK SMILES Clc1ccc(C(c2ccc(Cl)cc2)C(Cl)(Cl)Cl)cc1
REMARK SMILES IDX 6 1 14 2 15 3 16 4 17 5 5 6 4 7 18 8 3 9 19 10 2 11 1 12
REMARK SMILES IDX 7 13 8 14 13 15 9 16 12 17 10 18 11 19
REMARK H PARENT
REMARK Flexibility Score: inf
ROOT
ATOM      1  C   UNL     1      -4.750   4.142  -1.666  1.00  0.00     0.101 C 
ENDROOT
BRANCH   1   2
ATOM      2  C   UNL     1      -5.656   3.304  -2.662  1.00  0.00     0.201 C 
ATOM      3  Cl  UNL     1      -5.455   3.742  -4.389  1.00  0.00    -0.083 Cl
ATOM      4  Cl  UNL     1      -7.404   3.586  -2.266  1.00  0.00    -0.083 Cl
ATOM      5  Cl  UNL     1      -5.391   1.527  -2.495  1.00  0.00    -0.083 Cl
ENDBRANCH   1   2
BRANCH   1   6
ATOM      6  C   UNL     1      -4.570   5.581  -2.013  1.00  0.00    -0.036 A 
ATOM      7  C   UNL     1      -3.351   6.211  -1.765  1.00  0.00     0.006 A 
ATOM      8  C   UNL     1      -5.621   6.298  -2.586  1.00  0.00     0.006 A 
ATOM      9  C   UNL     1      -3.182   7.557  -2.088  1.00  0.00     0.021 A 
ATOM     10  C   UNL     1      -5.452   7.644  -2.910  1.00  0.00     0.021 A 
ATOM     11  C   UNL     1      -4.233   8.274  -2.661  1.00  0.00     0.041 A 
ATOM     12  Cl  UNL     1      -4.025   9.935  -3.061  1.00  0.00    -0.084 Cl
ENDBRANCH   1   6
BRANCH   1  13
ATOM     13  C   UNL     1      -3.435   3.469  -1.200  1.00  0.00    -0.036 A 
ATOM     14  C   UNL     1      -2.491   3.185  -2.146  1.00  0.00     0.006 A 
ATOM     15  C   UNL     1      -3.295   3.195   0.132  1.00  0.00     0.006 A 
ATOM     16  C   UNL     1      -1.309   2.577  -1.726  1.00  0.00     0.021 A 
ATOM     17  C   UNL     1      -2.112   2.586   0.552  1.00  0.00     0.021 A 
ATOM     18  C   UNL     1      -1.118   2.278  -0.377  1.00  0.00     0.041 A 
ATOM     19  Cl  UNL     1       0.341   1.527   0.142  1.00  0.00    -0.084 Cl
ENDBRANCH   1  13
TORSDOF 3
ENDMDL
MODEL 5
REMARK VINA RESULT:    -5.831      2.292      5.896
REMARK INTER + INTRA:          -7.480
REMARK INTER:                  -7.034
REMARK INTRA:                  -0.446
REMARK UNBOUND:                -0.626
REMARK SMILES Clc1ccc(C(c2ccc(Cl)cc2)C(Cl)(Cl)Cl)cc1
REMARK SMILES IDX 6 1 14 2 15 3 16 4 17 5 5 6 4 7 18 8 3 9 19 10 2 11 1 12
REMARK SMILES IDX 7 13 8 14 13 15 9 16 12 17 10 18 11 19
REMARK H PARENT
REMARK Flexibility Score: inf
ROOT
ATOM      1  C   UNL     1      -2.837   1.595  -3.260  1.00  0.00     0.101 C 
ENDROOT
BRANCH   1   2
ATOM      2  C   UNL     1      -3.833   0.403  -3.580  1.00  0.00     0.201 C 
ATOM      3  Cl  UNL     1      -3.081  -0.977  -4.443  1.00  0.00    -0.083 Cl
ATOM      4  Cl  UNL     1      -5.168   1.007  -4.651  1.00  0.00    -0.083 Cl
ATOM      5  Cl  UNL     1      -4.639  -0.230  -2.094  1.00  0.00    -0.083 Cl
ENDBRANCH   1   2
BRANCH   1   6
ATOM      6  C   UNL     1      -1.823   1.322  -2.201  1.00  0.00    -0.036 A 
ATOM      7  C   UNL     1      -1.152   0.100  -2.177  1.00  0.00     0.006 A 
ATOM      8  C   UNL     1      -1.547   2.289  -1.234  1.00  0.00     0.006 A 
ATOM      9  C   UNL     1      -0.204  -0.156  -1.186  1.00  0.00     0.021 A 
ATOM     10  C   UNL     1      -0.599   2.034  -0.243  1.00  0.00     0.021 A 
ATOM     11  C   UNL     1       0.072   0.812  -0.219  1.00  0.00     0.041 A 
ATOM     12  Cl  UNL     1       1.241   0.496   1.005  1.00  0.00    -0.084 Cl
ENDBRANCH   1   6
BRANCH   1  13
ATOM     13  C   UNL     1      -3.468   3.005  -3.138  1.00  0.00    -0.036 A 
ATOM     14  C   UNL     1      -3.085   3.958  -4.039  1.00  0.00     0.006 A 
ATOM     15  C   UNL     1      -4.371   3.216  -2.134  1.00  0.00     0.006 A 
ATOM     16  C   UNL     1      -3.652   5.227  -3.927  1.00  0.00     0.021 A 
ATOM     17  C   UNL     1      -4.938   4.486  -2.021  1.00  0.00     0.021 A 
ATOM     18  C   UNL     1      -4.578   5.491  -2.919  1.00  0.00     0.041 A 
ATOM     19  Cl  UNL     1      -5.278   7.058  -2.780  1.00  0.00    -0.084 Cl
ENDBRANCH   1  13
TORSDOF 3
ENDMDL
