MODEL 1
REMARK VINA RESULT:    -7.092      0.000      0.000
REMARK INTER + INTRA:         -12.157
REMARK INTER:                  -9.995
REMARK INTRA:                  -2.163
REMARK UNBOUND:                -2.163
REMARK SMILES CC1(C)[C@H](C=C(Cl)Cl)[C@H]1C(=O)OCc1cccc(Oc2ccccc2)c1
REMARK SMILES IDX 13 1 12 2 10 3 11 4 9 5 4 6 2 7 1 8 3 9 5 10 7 11 6 12 8 13
REMARK SMILES IDX 14 14 26 15 15 16 18 17 16 18 17 19 19 20 20 21 21 22 25 23
REMARK SMILES IDX 22 24 24 25 23 26
REMARK H PARENT
REMARK Flexibility Score: inf
ROOT
ATOM      1  C   UNL     1       1.231   3.622  -2.091  1.00  0.00     0.268 C 
ENDROOT
BRANCH   1   2
ATOM      2  O   UNL     1       0.306   4.643  -2.444  1.00  0.00    -0.461 OA
BRANCH   2   3
ATOM      3  C   UNL     1       0.118   5.623  -1.513  1.00  0.00     0.310 C 
ATOM      4  O   UNL     1       0.973   6.113  -0.788  1.00  0.00    -0.252 OA
BRANCH   3   5
ATOM      5  C   UNL     1      -1.297   6.067  -1.456  1.00  0.00     0.113 C 
ATOM      6  C   UNL     1      -2.161   5.838  -2.656  1.00  0.00     0.035 C 
ATOM      7  C   UNL     1      -1.751   7.232  -2.278  1.00  0.00    -0.014 C 
ATOM      8  C   UNL     1      -2.809   8.139  -1.747  1.00  0.00     0.012 C 
ATOM      9  C   UNL     1      -0.713   7.942  -3.081  1.00  0.00     0.012 C 
BRANCH   6  10
ATOM     10  C   UNL     1      -3.530   5.391  -2.444  1.00  0.00     0.011 C 
ATOM     11  Cl  UNL     1      -2.832   3.144  -1.131  1.00  0.00    -0.071 Cl
ATOM     12  C   UNL     1      -3.940   4.276  -1.818  1.00  0.00     0.103 C 
ATOM     13  Cl  UNL     1      -5.627   3.923  -1.674  1.00  0.00    -0.071 Cl
ENDBRANCH   6  10
ENDBRANCH   3   5
ENDBRANCH   2   3
ENDBRANCH   1   2
BRANCH   1  14
ATOM     14  C   UNL     1       0.528   2.308  -2.050  1.00  0.00    -0.007 A 
ATOM     15  C   UNL     1      -0.116   1.827  -3.191  1.00  0.00     0.054 A 
ATOM     16  C   UNL     1       0.515   1.560  -0.873  1.00  0.00     0.007 A 
ATOM     17  C   UNL     1      -0.773   0.597  -3.152  1.00  0.00     0.127 A 
ATOM     18  C   UNL     1      -0.143   0.331  -0.836  1.00  0.00     0.004 A 
ATOM     19  C   UNL     1      -0.786  -0.151  -1.976  1.00  0.00     0.047 A 
BRANCH  17  20
ATOM     20  O   UNL     1      -1.402   0.126  -4.265  1.00  0.00    -0.457 OA
BRANCH  20  21
ATOM     21  C   UNL     1      -2.784   0.196  -4.302  1.00  0.00     0.127 A 
ATOM     22  C   UNL     1      -3.516  -0.977  -4.350  1.00  0.00     0.047 A 
ATOM     23  C   UNL     1      -3.397   1.435  -4.291  1.00  0.00     0.047 A 
ATOM     24  C   UNL     1      -4.908  -0.907  -4.387  1.00  0.00     0.004 A 
ATOM     25  C   UNL     1      -4.790   1.504  -4.328  1.00  0.00     0.004 A 
ATOM     26  C   UNL     1      -5.545   0.333  -4.376  1.00  0.00     0.000 A 
ENDBRANCH  20  21
ENDBRANCH  17  20
ENDBRANCH   1  14
TORSDOF 7
ENDMDL
MODEL 2
REMARK VINA RESULT:    -7.028      2.971      6.609
REMARK INTER + INTRA:         -12.067
REMARK INTER:                  -9.879
REMARK INTRA:                  -2.188
REMARK UNBOUND:                -2.163
REMARK SMILES CC1(C)[C@H](C=C(Cl)Cl)[C@H]1C(=O)OCc1cccc(Oc2ccccc2)c1
REMARK SMILES IDX 13 1 12 2 10 3 11 4 9 5 4 6 2 7 1 8 3 9 5 10 7 11 6 12 8 13
REMARK SMILES IDX 14 14 26 15 15 16 18 17 16 18 17 19 19 20 20 21 21 22 25 23
REMARK SMILES IDX 22 24 24 25 23 26
REMARK H PARENT
REMARK Flexibility Score: inf
ROOT
ATOM      1  C   UNL     1      -4.549   1.993  -4.086  1.00  0.00     0.268 C 
ENDROOT
BRANCH   1   2
ATOM      2  O   UNL     1      -3.163   2.031  -3.769  1.00  0.00    -0.461 OA
BRANCH   2   3
ATOM      3  C   UNL     1      -2.826   1.582  -2.526  1.00  0.00     0.310 C 
ATOM      4  O   UNL     1      -3.355   0.665  -1.914  1.00  0.00    -0.252 OA
BRANCH   3   5
ATOM      5  C   UNL     1      -1.693   2.350  -1.949  1.00  0.00     0.113 C 
ATOM      6  C   UNL     1      -1.336   2.119  -0.515  1.00  0.00     0.035 C 
ATOM      7  C   UNL     1      -1.951   3.421  -0.938  1.00  0.00    -0.014 C 
ATOM      8  C   UNL     1      -1.081   4.632  -0.911  1.00  0.00     0.012 C 
ATOM      9  C   UNL     1      -3.376   3.711  -0.604  1.00  0.00     0.012 C 
BRANCH   6  10
ATOM     10  C   UNL     1       0.073   2.051  -0.157  1.00  0.00     0.011 C 
ATOM     11  Cl  UNL     1       0.193  -0.640  -0.224  1.00  0.00    -0.071 Cl
ATOM     12  C   UNL     1       0.827   0.951  -0.004  1.00  0.00     0.103 C 
ATOM     13  Cl  UNL     1       2.495   1.088   0.430  1.00  0.00    -0.071 Cl
ENDBRANCH   6  10
ENDBRANCH   3   5
ENDBRANCH   2   3
ENDBRANCH   1   2
BRANCH   1  14
ATOM     14  C   UNL     1      -5.223   3.192  -3.510  1.00  0.00    -0.007 A 
ATOM     15  C   UNL     1      -4.790   4.471  -3.860  1.00  0.00     0.054 A 
ATOM     16  C   UNL     1      -6.288   3.034  -2.623  1.00  0.00     0.007 A 
ATOM     17  C   UNL     1      -5.421   5.592  -3.321  1.00  0.00     0.127 A 
ATOM     18  C   UNL     1      -6.918   4.155  -2.084  1.00  0.00     0.004 A 
ATOM     19  C   UNL     1      -6.485   5.434  -2.434  1.00  0.00     0.047 A 
BRANCH  17  20
ATOM     20  O   UNL     1      -4.998   6.840  -3.662  1.00  0.00    -0.457 OA
BRANCH  20  21
ATOM     21  C   UNL     1      -3.736   7.229  -3.247  1.00  0.00     0.127 A 
ATOM     22  C   UNL     1      -2.680   7.150  -4.138  1.00  0.00     0.047 A 
ATOM     23  C   UNL     1      -3.563   7.686  -1.954  1.00  0.00     0.047 A 
ATOM     24  C   UNL     1      -1.409   7.542  -3.720  1.00  0.00     0.004 A 
ATOM     25  C   UNL     1      -2.290   8.078  -1.536  1.00  0.00     0.004 A 
ATOM     26  C   UNL     1      -1.214   8.006  -2.420  1.00  0.00     0.000 A 
ENDBRANCH  20  21
ENDBRANCH  17  20
ENDBRANCH   1  14
TORSDOF 7
ENDMDL
MODEL 3
REMARK VINA RESULT:    -6.923      2.359      4.999
REMARK INTER + INTRA:         -11.919
REMARK INTER:                  -9.168
REMARK INTRA:                  -2.751
REMARK UNBOUND:                -2.163
REMARK SMILES CC1(C)[C@H](C=C(Cl)Cl)[C@H]1C(=O)OCc1cccc(Oc2ccccc2)c1
REMARK SMILES IDX 13 1 12 2 10 3 11 4 9 5 4 6 2 7 1 8 3 9 5 10 7 11 6 12 8 13
REMARK SMILES IDX 14 14 26 15 15 16 18 17 16 18 17 19 19 20 20 21 21 22 25 23
REMARK SMILES IDX 22 24 24 25 23 26
REMARK H PARENT
REMARK Flexibility Score: inf
ROOT
ATOM      1  C   UNL     1      -4.888   3.102  -4.663  1.00  0.00     0.268 C 
ENDROOT
BRANCH   1   2
ATOM      2  O   UNL     1      -4.165   4.053  -3.892  1.00  0.00    -0.461 OA
BRANCH   2   3
ATOM      3  C   UNL     1      -4.723   4.395  -2.695  1.00  0.00     0.310 C 
ATOM      4  O   UNL     1      -5.896   4.265  -2.374  1.00  0.00    -0.252 OA
BRANCH   3   5
ATOM      5  C   UNL     1      -3.721   4.970  -1.762  1.00  0.00     0.113 C 
ATOM      6  C   UNL     1      -2.273   4.698  -2.020  1.00  0.00     0.035 C 
ATOM      7  C   UNL     1      -2.957   4.076  -0.839  1.00  0.00    -0.014 C 
ATOM      8  C   UNL     1      -2.574   4.571   0.515  1.00  0.00     0.012 C 
ATOM      9  C   UNL     1      -3.299   2.624  -0.860  1.00  0.00     0.012 C 
BRANCH   6  10
ATOM     10  C   UNL     1      -1.323   5.786  -1.834  1.00  0.00     0.011 C 
ATOM     11  Cl  UNL     1      -1.083   6.328  -4.462  1.00  0.00    -0.071 Cl
ATOM     12  C   UNL     1      -0.752   6.546  -2.781  1.00  0.00     0.103 C 
ATOM     13  Cl  UNL     1       0.361   7.795  -2.347  1.00  0.00    -0.071 Cl
ENDBRANCH   6  10
ENDBRANCH   3   5
ENDBRANCH   2   3
ENDBRANCH   1   2
BRANCH   1  14
ATOM     14  C   UNL     1      -4.276   1.753  -4.489  1.00  0.00    -0.007 A 
ATOM     15  C   UNL     1      -2.904   1.634  -4.263  1.00  0.00     0.054 A 
ATOM     16  C   UNL     1      -5.075   0.611  -4.551  1.00  0.00     0.007 A 
ATOM     17  C   UNL     1      -2.332   0.372  -4.100  1.00  0.00     0.127 A 
ATOM     18  C   UNL     1      -4.502  -0.650  -4.388  1.00  0.00     0.004 A 
ATOM     19  C   UNL     1      -3.131  -0.769  -4.162  1.00  0.00     0.047 A 
BRANCH  17  20
ATOM     20  O   UNL     1      -0.994   0.255  -3.879  1.00  0.00    -0.457 OA
BRANCH  20  21
ATOM     21  C   UNL     1      -0.504   0.674  -2.654  1.00  0.00     0.127 A 
ATOM     22  C   UNL     1       0.020   1.950  -2.539  1.00  0.00     0.047 A 
ATOM     23  C   UNL     1      -0.550  -0.192  -1.578  1.00  0.00     0.047 A 
ATOM     24  C   UNL     1       0.514   2.372  -1.306  1.00  0.00     0.004 A 
ATOM     25  C   UNL     1      -0.055   0.231  -0.343  1.00  0.00     0.004 A 
ATOM     26  C   UNL     1       0.476   1.514  -0.208  1.00  0.00     0.000 A 
ENDBRANCH  20  21
ENDBRANCH  17  20
ENDBRANCH   1  14
TORSDOF 7
ENDMDL
MODEL 4
REMARK VINA RESULT:    -6.865     12.763     15.755
REMARK INTER + INTRA:         -11.837
REMARK INTER:                 -10.760
REMARK INTRA:                  -1.077
REMARK UNBOUND:                -2.163
REMARK SMILES CC1(C)[C@H](C=C(Cl)Cl)[C@H]1C(=O)OCc1cccc(Oc2ccccc2)c1
REMARK SMILES IDX 13 1 12 2 10 3 11 4 9 5 4 6 2 7 1 8 3 9 5 10 7 11 6 12 8 13
REMARK SMILES IDX 14 14 26 15 15 16 18 17 16 18 17 19 19 20 20 21 21 22 25 23
REMARK SMILES IDX 22 24 24 25 23 26
REMARK H PARENT
REMARK Flexibility Score: inf
ROOT
ATOM      1  C   UNL     1       3.225  -4.742  10.391  1.00  0.00     0.268 C 
ENDROOT
BRANCH   1   2
ATOM      2  O   UNL     1       2.531  -5.878   9.891  1.00  0.00    -0.461 OA
BRANCH   2   3
ATOM      3  C   UNL     1       1.440  -5.613   9.116  1.00  0.00     0.310 C 
ATOM      4  O   UNL     1       0.550  -6.398   8.817  1.00  0.00    -0.252 OA
BRANCH   3   5
ATOM      5  C   UNL     1       1.426  -4.206   8.641  1.00  0.00     0.113 C 
ATOM      6  C   UNL     1       0.190  -3.695   7.971  1.00  0.00     0.035 C 
ATOM      7  C   UNL     1       1.444  -3.910   7.175  1.00  0.00    -0.014 C 
ATOM      8  C   UNL     1       2.158  -2.698   6.679  1.00  0.00     0.012 C 
ATOM      9  C   UNL     1       1.544  -5.074   6.247  1.00  0.00     0.012 C 
BRANCH   6  10
ATOM     10  C   UNL     1      -0.259  -2.348   8.289  1.00  0.00     0.011 C 
ATOM     11  Cl  UNL     1      -2.663  -3.127   9.225  1.00  0.00    -0.071 Cl
ATOM     12  C   UNL     1      -1.436  -1.981   8.818  1.00  0.00     0.103 C 
ATOM     13  Cl  UNL     1      -1.778  -0.312   9.119  1.00  0.00    -0.071 Cl
ENDBRANCH   6  10
ENDBRANCH   3   5
ENDBRANCH   2   3
ENDBRANCH   1   2
BRANCH   1  14
ATOM     14  C   UNL     1       4.692  -4.933  10.203  1.00  0.00    -0.007 A 
ATOM     15  C   UNL     1       5.175  -6.122   9.657  1.00  0.00     0.054 A 
ATOM     16  C   UNL     1       5.580  -3.923  10.572  1.00  0.00     0.007 A 
ATOM     17  C   UNL     1       6.547  -6.300   9.481  1.00  0.00     0.127 A 
ATOM     18  C   UNL     1       6.951  -4.102  10.397  1.00  0.00     0.004 A 
ATOM     19  C   UNL     1       7.435  -5.291   9.850  1.00  0.00     0.047 A 
BRANCH  17  20
ATOM     20  O   UNL     1       7.020  -7.460   8.947  1.00  0.00    -0.457 OA
BRANCH  20  21
ATOM     21  C   UNL     1       7.735  -7.382   7.765  1.00  0.00     0.127 A 
ATOM     22  C   UNL     1       7.175  -6.727   6.681  1.00  0.00     0.047 A 
ATOM     23  C   UNL     1       8.989  -7.959   7.696  1.00  0.00     0.047 A 
ATOM     24  C   UNL     1       7.896  -6.648   5.491  1.00  0.00     0.004 A 
ATOM     25  C   UNL     1       9.710  -7.879   6.504  1.00  0.00     0.004 A 
ATOM     26  C   UNL     1       9.163  -7.223   5.401  1.00  0.00     0.000 A 
ENDBRANCH  20  21
ENDBRANCH  17  20
ENDBRANCH   1  14
TORSDOF 7
ENDMDL
MODEL 5
REMARK VINA RESULT:    -6.820      1.877      2.441
REMARK INTER + INTRA:         -11.773
REMARK INTER:                 -10.686
REMARK INTRA:                  -1.088
REMARK UNBOUND:                -2.163
REMARK SMILES CC1(C)[C@H](C=C(Cl)Cl)[C@H]1C(=O)OCc1cccc(Oc2ccccc2)c1
REMARK SMILES IDX 13 1 12 2 10 3 11 4 9 5 4 6 2 7 1 8 3 9 5 10 7 11 6 12 8 13
REMARK SMILES IDX 14 14 26 15 15 16 18 17 16 18 17 19 19 20 20 21 21 22 25 23
REMARK SMILES IDX 22 24 24 25 23 26
REMARK H PARENT
REMARK Flexibility Score: inf
ROOT
ATOM      1  C   UNL     1       0.879   3.564  -1.904  1.00  0.00     0.268 C 
ENDROOT
BRANCH   1   2
ATOM      2  O   UNL     1       0.288   4.468  -0.979  1.00  0.00    -0.461 OA
BRANCH   2   3
ATOM      3  C   UNL     1      -1.048   4.696  -1.142  1.00  0.00     0.310 C 
ATOM      4  O   UNL     1      -1.963   4.061  -0.637  1.00  0.00    -0.252 OA
BRANCH   3   5
ATOM      5  C   UNL     1      -1.306   5.851  -2.038  1.00  0.00     0.113 C 
ATOM      6  C   UNL     1      -2.726   6.237  -2.307  1.00  0.00     0.035 C 
ATOM      7  C   UNL     1      -1.892   5.630  -3.397  1.00  0.00    -0.014 C 
ATOM      8  C   UNL     1      -1.486   6.517  -4.525  1.00  0.00     0.012 C 
ATOM      9  C   UNL     1      -2.129   4.217  -3.812  1.00  0.00     0.012 C 
BRANCH   6  10
ATOM     10  C   UNL     1      -3.062   7.653  -2.338  1.00  0.00     0.011 C 
ATOM     11  Cl  UNL     1      -5.662   7.256  -2.923  1.00  0.00    -0.071 Cl
ATOM     12  C   UNL     1      -4.259   8.206  -2.585  1.00  0.00     0.103 C 
ATOM     13  Cl  UNL     1      -4.448   9.925  -2.578  1.00  0.00    -0.071 Cl
ENDBRANCH   6  10
ENDBRANCH   3   5
ENDBRANCH   2   3
ENDBRANCH   1   2
BRANCH   1  14
ATOM     14  C   UNL     1       0.471   2.170  -1.567  1.00  0.00    -0.007 A 
ATOM     15  C   UNL     1      -0.242   1.409  -2.493  1.00  0.00     0.054 A 
ATOM     16  C   UNL     1       0.803   1.628  -0.325  1.00  0.00     0.007 A 
ATOM     17  C   UNL     1      -0.623   0.105  -2.176  1.00  0.00     0.127 A 
ATOM     18  C   UNL     1       0.422   0.324  -0.009  1.00  0.00     0.004 A 
ATOM     19  C   UNL     1      -0.292  -0.437  -0.936  1.00  0.00     0.047 A 
BRANCH  17  20
ATOM     20  O   UNL     1      -1.319  -0.639  -3.080  1.00  0.00    -0.457 OA
BRANCH  20  21
ATOM     21  C   UNL     1      -2.652  -0.323  -3.284  1.00  0.00     0.127 A 
ATOM     22  C   UNL     1      -3.339  -0.940  -4.315  1.00  0.00     0.047 A 
ATOM     23  C   UNL     1      -3.261   0.599  -2.454  1.00  0.00     0.047 A 
ATOM     24  C   UNL     1      -4.681  -0.622  -4.521  1.00  0.00     0.004 A 
ATOM     25  C   UNL     1      -4.605   0.916  -2.660  1.00  0.00     0.004 A 
ATOM     26  C   UNL     1      -5.314   0.305  -3.693  1.00  0.00     0.000 A 
ENDBRANCH  20  21
ENDBRANCH  17  20
ENDBRANCH   1  14
TORSDOF 7
ENDMDL
