MODEL 1
REMARK VINA RESULT:    -6.606      0.000      0.000
REMARK INTER + INTRA:         -11.618
REMARK INTER:                  -9.696
REMARK INTRA:                  -1.922
REMARK UNBOUND:                -1.922
REMARK SMILES CC1(C)C(C=C(Br)Br)C1C(=O)OC(C#N)c1cccc(Oc2ccccc2)c1
REMARK SMILES IDX 13 1 12 2 10 3 11 4 9 5 4 6 2 7 1 8 3 9 5 10 7 11 6 12 8 13
REMARK SMILES IDX 16 14 28 15 17 16 20 17 18 18 19 19 21 20 22 21 23 22 27 23
REMARK SMILES IDX 24 24 26 25 25 26 14 27 15 28
REMARK H PARENT
REMARK Flexibility Score: inf
ROOT
ATOM      1  C   UNL     1       0.586   3.141  -3.850  1.00  0.00     0.309 C
ENDROOT
BRANCH   1   2
ATOM      2  O   UNL     1       0.020   2.115  -3.023  1.00  0.00    -0.442 OA
BRANCH   2   3
ATOM      3  C   UNL     1      -0.924   1.340  -3.621  1.00  0.00     0.311 C
ATOM      4  O   UNL     1      -0.824   0.159  -3.924  1.00  0.00    -0.252 OA
BRANCH   3   5
ATOM      5  C   UNL     1      -2.166   2.109  -3.890  1.00  0.00     0.113 C
ATOM      6  C   UNL     1      -3.011   2.521  -2.727  1.00  0.00     0.035 C
ATOM      7  C   UNL     1      -3.502   1.471  -3.680  1.00  0.00    -0.014 C
ATOM      8  C   UNL     1      -3.574   0.069  -3.175  1.00  0.00     0.012 C
ATOM      9  C   UNL     1      -4.574   1.806  -4.663  1.00  0.00     0.012 C
BRANCH   6  10
ATOM     10  C   UNL     1      -2.571   2.157  -1.389  1.00  0.00     0.001 C
ATOM     11  Br  UNL     1      -2.714   4.808  -0.374  1.00  0.00    -0.043 Br
ATOM     12  C   UNL     1      -2.400   2.963  -0.328  1.00  0.00     0.057 C
ATOM     13  Br  UNL     1      -1.821   2.283   1.321  1.00  0.00    -0.043 Br
ENDBRANCH   6  10
ENDBRANCH   3   5
ENDBRANCH   2   3
ENDBRANCH   1   2
BRANCH   1  14
ATOM     14  C   UNL     1       0.379   4.475  -3.219  1.00  0.00     0.011 A
ATOM     15  C   UNL     1      -0.431   5.425  -3.844  1.00  0.00     0.055 A
ATOM     16  C   UNL     1       0.993   4.774  -2.003  1.00  0.00     0.009 A
ATOM     17  C   UNL     1      -0.624   6.672  -3.253  1.00  0.00     0.127 A
ATOM     18  C   UNL     1       0.799   6.023  -1.413  1.00  0.00     0.004 A
ATOM     19  C   UNL     1      -0.009   6.972  -2.037  1.00  0.00     0.047 A
BRANCH  17  20
ATOM     20  O   UNL     1      -1.413   7.600  -3.862  1.00  0.00    -0.457 OA
BRANCH  20  21
ATOM     21  C   UNL     1      -2.751   7.639  -3.508  1.00  0.00     0.127 A
ATOM     22  C   UNL     1      -3.535   6.518  -3.710  1.00  0.00     0.047 A
ATOM     23  C   UNL     1      -3.270   8.799  -2.960  1.00  0.00     0.047 A
ATOM     24  C   UNL     1      -4.883   6.557  -3.353  1.00  0.00     0.004 A
ATOM     25  C   UNL     1      -4.617   8.839  -2.604  1.00  0.00     0.004 A
ATOM     26  C   UNL     1      -5.424   7.718  -2.799  1.00  0.00     0.000 A
ENDBRANCH  20  21
ENDBRANCH  17  20
ENDBRANCH   1  14
BRANCH   1  27
ATOM     27  C   UNL     1       2.012   2.842  -4.093  1.00  0.00     0.113 C
ATOM     28  N   UNL     1       3.132   2.601  -4.275  1.00  0.00    -0.194 NA
ENDBRANCH   1  27
TORSDOF 8
ENDMDL
MODEL 2
REMARK VINA RESULT:    -6.568      1.577      2.515
REMARK INTER + INTRA:         -11.562
REMARK INTER:                 -10.090
REMARK INTRA:                  -1.471
REMARK UNBOUND:                -1.922
REMARK SMILES CC1(C)C(C=C(Br)Br)C1C(=O)OC(C#N)c1cccc(Oc2ccccc2)c1
REMARK SMILES IDX 13 1 12 2 10 3 11 4 9 5 4 6 2 7 1 8 3 9 5 10 7 11 6 12 8 13
REMARK SMILES IDX 16 14 28 15 17 16 20 17 18 18 19 19 21 20 22 21 23 22 27 23
REMARK SMILES IDX 24 24 26 25 25 26 14 27 15 28
REMARK H PARENT
REMARK Flexibility Score: inf
ROOT
ATOM      1  C   UNL     1       1.067   3.212  -3.864  1.00  0.00     0.309 C
ENDROOT
BRANCH   1   2
ATOM      2  O   UNL     1       0.755   2.167  -2.933  1.00  0.00    -0.442 OA
BRANCH   2   3
ATOM      3  C   UNL     1      -0.523   1.705  -2.984  1.00  0.00     0.311 C
ATOM      4  O   UNL     1      -1.383   2.005  -3.800  1.00  0.00    -0.252 OA
BRANCH   3   5
ATOM      5  C   UNL     1      -0.794   0.741  -1.886  1.00  0.00     0.113 C
ATOM      6  C   UNL     1      -1.300   1.273  -0.584  1.00  0.00     0.035 C
ATOM      7  C   UNL     1       0.089   0.713  -0.680  1.00  0.00    -0.014 C
ATOM      8  C   UNL     1       1.224   1.676  -0.578  1.00  0.00     0.012 C
ATOM      9  C   UNL     1       0.389  -0.626  -0.092  1.00  0.00     0.012 C
BRANCH   6  10
ATOM     10  C   UNL     1      -1.510   2.707  -0.458  1.00  0.00     0.001 C
ATOM     11  Br  UNL     1      -4.154   2.640  -1.499  1.00  0.00    -0.043 Br
ATOM     12  C   UNL     1      -2.606   3.413  -0.784  1.00  0.00     0.057 C
ATOM     13  Br  UNL     1      -2.670   5.271  -0.538  1.00  0.00    -0.043 Br
ENDBRANCH   6  10
ENDBRANCH   3   5
ENDBRANCH   2   3
ENDBRANCH   1   2
BRANCH   1  14
ATOM     14  C   UNL     1       0.708   4.536  -3.282  1.00  0.00     0.011 A
ATOM     15  C   UNL     1      -0.135   5.401  -3.981  1.00  0.00     0.055 A
ATOM     16  C   UNL     1       1.213   4.910  -2.037  1.00  0.00     0.009 A
ATOM     17  C   UNL     1      -0.472   6.639  -3.435  1.00  0.00     0.127 A
ATOM     18  C   UNL     1       0.877   6.149  -1.492  1.00  0.00     0.004 A
ATOM     19  C   UNL     1       0.035   7.014  -2.190  1.00  0.00     0.047 A
BRANCH  17  20
ATOM     20  O   UNL     1      -1.294   7.483  -4.117  1.00  0.00    -0.457 OA
BRANCH  20  21
ATOM     21  C   UNL     1      -2.605   7.595  -3.683  1.00  0.00     0.127 A
ATOM     22  C   UNL     1      -2.998   8.739  -3.013  1.00  0.00     0.047 A
ATOM     23  C   UNL     1      -3.487   6.558  -3.931  1.00  0.00     0.047 A
ATOM     24  C   UNL     1      -4.318   8.851  -2.576  1.00  0.00     0.004 A
ATOM     25  C   UNL     1      -4.806   6.670  -3.493  1.00  0.00     0.004 A
ATOM     26  C   UNL     1      -5.222   7.816  -2.817  1.00  0.00     0.000 A
ENDBRANCH  20  21
ENDBRANCH  17  20
ENDBRANCH   1  14
BRANCH   1  27
ATOM     27  C   UNL     1       2.493   3.124  -4.239  1.00  0.00     0.113 C
ATOM     28  N   UNL     1       3.612   3.061  -4.542  1.00  0.00    -0.194 NA
ENDBRANCH   1  27
TORSDOF 8
ENDMDL
MODEL 3
REMARK VINA RESULT:    -6.458      2.877      4.914
REMARK INTER + INTRA:         -11.401
REMARK INTER:                  -9.901
REMARK INTRA:                  -1.499
REMARK UNBOUND:                -1.922
REMARK SMILES CC1(C)C(C=C(Br)Br)C1C(=O)OC(C#N)c1cccc(Oc2ccccc2)c1
REMARK SMILES IDX 13 1 12 2 10 3 11 4 9 5 4 6 2 7 1 8 3 9 5 10 7 11 6 12 8 13
REMARK SMILES IDX 16 14 28 15 17 16 20 17 18 18 19 19 21 20 22 21 23 22 27 23
REMARK SMILES IDX 24 24 26 25 25 26 14 27 15 28
REMARK H PARENT
REMARK Flexibility Score: inf
ROOT
ATOM      1  C   UNL     1      -4.425   1.199  -2.851  1.00  0.00     0.309 C
ENDROOT
BRANCH   1   2
ATOM      2  O   UNL     1      -3.068   1.319  -3.300  1.00  0.00    -0.442 OA
BRANCH   2   3
ATOM      3  C   UNL     1      -2.128   0.838  -2.444  1.00  0.00     0.311 C
ATOM      4  O   UNL     1      -1.402  -0.131  -2.615  1.00  0.00    -0.252 OA
BRANCH   3   5
ATOM      5  C   UNL     1      -2.060   1.650  -1.201  1.00  0.00     0.113 C
ATOM      6  C   UNL     1      -1.204   2.875  -1.200  1.00  0.00     0.035 C
ATOM      7  C   UNL     1      -0.804   1.676  -0.392  1.00  0.00    -0.014 C
ATOM      8  C   UNL     1       0.386   0.904  -0.857  1.00  0.00     0.012 C
ATOM      9  C   UNL     1      -0.954   1.701   1.093  1.00  0.00     0.012 C
BRANCH   6  10
ATOM     10  C   UNL     1      -0.486   3.219  -2.418  1.00  0.00     0.001 C
ATOM     11  Br  UNL     1       0.386   5.749  -1.461  1.00  0.00    -0.043 Br
ATOM     12  C   UNL     1       0.206   4.341  -2.681  1.00  0.00     0.057 C
ATOM     13  Br  UNL     1       1.065   4.584  -4.330  1.00  0.00    -0.043 Br
ENDBRANCH   6  10
ENDBRANCH   3   5
ENDBRANCH   2   3
ENDBRANCH   1   2
BRANCH   1  14
ATOM     14  C   UNL     1      -5.101   2.526  -2.914  1.00  0.00     0.011 A
ATOM     15  C   UNL     1      -4.612   3.519  -3.764  1.00  0.00     0.055 A
ATOM     16  C   UNL     1      -6.223   2.776  -2.124  1.00  0.00     0.009 A
ATOM     17  C   UNL     1      -5.245   4.760  -3.823  1.00  0.00     0.127 A
ATOM     18  C   UNL     1      -6.856   4.017  -2.183  1.00  0.00     0.004 A
ATOM     19  C   UNL     1      -6.367   5.010  -3.033  1.00  0.00     0.047 A
BRANCH  17  20
ATOM     20  O   UNL     1      -4.769   5.729  -4.652  1.00  0.00    -0.457 OA
BRANCH  20  21
ATOM     21  C   UNL     1      -3.795   6.580  -4.154  1.00  0.00     0.127 A
ATOM     22  C   UNL     1      -4.132   7.482  -3.163  1.00  0.00     0.047 A
ATOM     23  C   UNL     1      -2.510   6.504  -4.662  1.00  0.00     0.047 A
ATOM     24  C   UNL     1      -3.152   8.339  -2.661  1.00  0.00     0.004 A
ATOM     25  C   UNL     1      -1.531   7.361  -4.162  1.00  0.00     0.004 A
ATOM     26  C   UNL     1      -1.851   8.278  -3.160  1.00  0.00     0.000 A
ENDBRANCH  20  21
ENDBRANCH  17  20
ENDBRANCH   1  14
BRANCH   1  27
ATOM     27  C   UNL     1      -5.117   0.171  -3.653  1.00  0.00     0.113 C
ATOM     28  N   UNL     1      -5.670  -0.636  -4.278  1.00  0.00    -0.194 NA
ENDBRANCH   1  27
TORSDOF 8
ENDMDL
MODEL 4
REMARK VINA RESULT:    -6.458      4.180      5.941
REMARK INTER + INTRA:         -11.400
REMARK INTER:                 -10.258
REMARK INTRA:                  -1.142
REMARK UNBOUND:                -1.922
REMARK SMILES CC1(C)C(C=C(Br)Br)C1C(=O)OC(C#N)c1cccc(Oc2ccccc2)c1
REMARK SMILES IDX 13 1 12 2 10 3 11 4 9 5 4 6 2 7 1 8 3 9 5 10 7 11 6 12 8 13
REMARK SMILES IDX 16 14 28 15 17 16 20 17 18 18 19 19 21 20 22 21 23 22 27 23
REMARK SMILES IDX 24 24 26 25 25 26 14 27 15 28
REMARK H PARENT
REMARK Flexibility Score: inf
ROOT
ATOM      1  C   UNL     1      -4.346   1.595  -2.417  1.00  0.00     0.309 C
ENDROOT
BRANCH   1   2
ATOM      2  O   UNL     1      -2.985   1.700  -2.855  1.00  0.00    -0.442 OA
BRANCH   2   3
ATOM      3  C   UNL     1      -2.071   1.071  -2.069  1.00  0.00     0.311 C
ATOM      4  O   UNL     1      -1.453   0.049  -2.331  1.00  0.00    -0.252 OA
BRANCH   3   5
ATOM      5  C   UNL     1      -1.883   1.784  -0.779  1.00  0.00     0.113 C
ATOM      6  C   UNL     1      -0.977   2.973  -0.752  1.00  0.00     0.035 C
ATOM      7  C   UNL     1      -0.572   1.703  -0.064  1.00  0.00    -0.014 C
ATOM      8  C   UNL     1       0.548   0.924  -0.669  1.00  0.00     0.012 C
ATOM      9  C   UNL     1      -0.618   1.622   1.426  1.00  0.00     0.012 C
BRANCH   6  10
ATOM     10  C   UNL     1      -0.332   3.380  -1.991  1.00  0.00     0.001 C
ATOM     11  Br  UNL     1      -1.081   6.111  -1.751  1.00  0.00    -0.043 Br
ATOM     12  C   UNL     1      -0.284   4.609  -2.533  1.00  0.00     0.057 C
ATOM     13  Br  UNL     1       0.609   4.919  -4.153  1.00  0.00    -0.043 Br
ENDBRANCH   6  10
ENDBRANCH   3   5
ENDBRANCH   2   3
ENDBRANCH   1   2
BRANCH   1  14
ATOM     14  C   UNL     1      -4.994   2.937  -2.444  1.00  0.00     0.011 A
ATOM     15  C   UNL     1      -6.384   3.043  -2.379  1.00  0.00     0.055 A
ATOM     16  C   UNL     1      -4.211   4.088  -2.531  1.00  0.00     0.009 A
ATOM     17  C   UNL     1      -6.990   4.298  -2.403  1.00  0.00     0.127 A
ATOM     18  C   UNL     1      -4.818   5.344  -2.555  1.00  0.00     0.004 A
ATOM     19  C   UNL     1      -6.207   5.449  -2.492  1.00  0.00     0.047 A
BRANCH  17  20
ATOM     20  O   UNL     1      -8.346   4.402  -2.341  1.00  0.00    -0.457 OA
BRANCH  20  21
ATOM     21  C   UNL     1      -8.934   4.403  -1.087  1.00  0.00     0.127 A
ATOM     22  C   UNL     1      -8.751   5.495  -0.258  1.00  0.00     0.047 A
ATOM     23  C   UNL     1      -9.690   3.312  -0.696  1.00  0.00     0.047 A
ATOM     24  C   UNL     1      -9.343   5.497   1.005  1.00  0.00     0.004 A
ATOM     25  C   UNL     1     -10.281   3.314   0.567  1.00  0.00     0.004 A
ATOM     26  C   UNL     1     -10.109   4.406   1.418  1.00  0.00     0.000 A
ENDBRANCH  20  21
ENDBRANCH  17  20
ENDBRANCH   1  14
BRANCH   1  27
ATOM     27  C   UNL     1      -5.054   0.606  -3.255  1.00  0.00     0.113 C
ATOM     28  N   UNL     1      -5.606  -0.167  -3.923  1.00  0.00    -0.194 NA
ENDBRANCH   1  27
TORSDOF 8
ENDMDL
MODEL 5
REMARK VINA RESULT:    -6.402      2.836      5.511
REMARK INTER + INTRA:         -11.318
REMARK INTER:                 -10.008
REMARK INTRA:                  -1.310
REMARK UNBOUND:                -1.922
REMARK SMILES CC1(C)C(C=C(Br)Br)C1C(=O)OC(C#N)c1cccc(Oc2ccccc2)c1
REMARK SMILES IDX 13 1 12 2 10 3 11 4 9 5 4 6 2 7 1 8 3 9 5 10 7 11 6 12 8 13
REMARK SMILES IDX 16 14 28 15 17 16 20 17 18 18 19 19 21 20 22 21 23 22 27 23
REMARK SMILES IDX 24 24 26 25 25 26 14 27 15 28
REMARK H PARENT
REMARK Flexibility Score: inf
ROOT
ATOM      1  C   UNL     1      -0.678   2.238  -0.724  1.00  0.00     0.309 C
ENDROOT
BRANCH   1   2
ATOM      2  O   UNL     1      -0.028   3.211  -1.554  1.00  0.00    -0.442 OA
BRANCH   2   3
ATOM      3  C   UNL     1      -0.493   4.483  -1.432  1.00  0.00     0.311 C
ATOM      4  O   UNL     1      -0.217   5.287  -0.552  1.00  0.00    -0.252 OA
BRANCH   3   5
ATOM      5  C   UNL     1      -1.426   4.827  -2.535  1.00  0.00     0.113 C
ATOM      6  C   UNL     1      -0.865   4.998  -3.911  1.00  0.00     0.035 C
ATOM      7  C   UNL     1      -1.381   6.187  -3.156  1.00  0.00    -0.014 C
ATOM      8  C   UNL     1      -0.377   7.181  -2.675  1.00  0.00     0.012 C
ATOM      9  C   UNL     1      -2.687   6.799  -3.541  1.00  0.00     0.012 C
BRANCH   6  10
ATOM     10  C   UNL     1       0.564   4.808  -4.104  1.00  0.00     0.001 C
ATOM     11  Br  UNL     1       0.351   2.029  -4.663  1.00  0.00    -0.043 Br
ATOM     12  C   UNL     1       1.213   3.672  -4.410  1.00  0.00     0.057 C
ATOM     13  Br  UNL     1       3.077   3.647  -4.616  1.00  0.00    -0.043 Br
ENDBRANCH   6  10
ENDBRANCH   3   5
ENDBRANCH   2   3
ENDBRANCH   1   2
BRANCH   1  14
ATOM     14  C   UNL     1      -1.317   1.192  -1.572  1.00  0.00     0.011 A
ATOM     15  C   UNL     1      -2.555   1.436  -2.168  1.00  0.00     0.055 A
ATOM     16  C   UNL     1      -0.676  -0.031  -1.770  1.00  0.00     0.009 A
ATOM     17  C   UNL     1      -3.152   0.457  -2.961  1.00  0.00     0.127 A
ATOM     18  C   UNL     1      -1.275  -1.010  -2.564  1.00  0.00     0.004 A
ATOM     19  C   UNL     1      -2.512  -0.767  -3.159  1.00  0.00     0.047 A
BRANCH  17  20
ATOM     20  O   UNL     1      -4.360   0.694  -3.542  1.00  0.00    -0.457 OA
BRANCH  20  21
ATOM     21  C   UNL     1      -4.837   1.994  -3.527  1.00  0.00     0.127 A
ATOM     22  C   UNL     1      -5.663   2.396  -2.494  1.00  0.00     0.047 A
ATOM     23  C   UNL     1      -4.474   2.858  -4.545  1.00  0.00     0.047 A
ATOM     24  C   UNL     1      -6.145   3.706  -2.478  1.00  0.00     0.004 A
ATOM     25  C   UNL     1      -4.956   4.166  -4.530  1.00  0.00     0.004 A
ATOM     26  C   UNL     1      -5.790   4.591  -3.496  1.00  0.00     0.000 A
ENDBRANCH  20  21
ENDBRANCH  17  20
ENDBRANCH   1  14
BRANCH   1  27
ATOM     27  C   UNL     1       0.300   1.678   0.230  1.00  0.00     0.113 C
ATOM     28  N   UNL     1       1.077   1.245   0.976  1.00  0.00    -0.194 NA
ENDBRANCH   1  27
TORSDOF 8
ENDMDL
