MODEL 1
REMARK VINA RESULT:    -6.644      0.000      0.000
REMARK INTER + INTRA:         -12.534
REMARK INTER:                  -9.364
REMARK INTRA:                  -3.171
REMARK UNBOUND:                -3.171
REMARK SMILES CC1(C)[C@H](C=C(Cl)Cl)[C@H]1C(=O)OCc1cccc(Oc2ccccc2)c1
REMARK SMILES IDX 13 1 12 2 10 3 11 4 9 5 4 6 2 7 1 8 3 9 5 10 7 11 6 12 8 13
REMARK SMILES IDX 14 14 26 15 15 16 18 17 16 18 17 19 19 20 20 21 21 22 25 23
REMARK SMILES IDX 22 24 24 25 23 26
REMARK H PARENT
REMARK Flexibility Score: inf
ROOT
ATOM      1  C   UNL     1      -0.476   6.808  -3.233  1.00  0.00     0.268 C 
ENDROOT
BRANCH   1   2
ATOM      2  O   UNL     1      -0.283   5.431  -2.936  1.00  0.00    -0.461 OA
BRANCH   2   3
ATOM      3  C   UNL     1       0.018   5.140  -1.637  1.00  0.00     0.310 C 
ATOM      4  O   UNL     1       0.652   5.842  -0.861  1.00  0.00    -0.252 OA
BRANCH   3   5
ATOM      5  C   UNL     1      -0.526   3.821  -1.225  1.00  0.00     0.113 C 
ATOM      6  C   UNL     1      -1.681   3.260  -1.991  1.00  0.00     0.035 C 
ATOM      7  C   UNL     1      -1.873   3.734  -0.581  1.00  0.00    -0.014 C 
ATOM      8  C   UNL     1      -2.122   2.699   0.464  1.00  0.00     0.012 C 
ATOM      9  C   UNL     1      -2.586   5.018  -0.321  1.00  0.00     0.012 C 
BRANCH   6  10
ATOM     10  C   UNL     1      -1.679   1.836  -2.296  1.00  0.00     0.011 C 
ATOM     11  Cl  UNL     1       0.004   2.057  -4.389  1.00  0.00    -0.071 Cl
ATOM     12  C   UNL     1      -1.011   1.210  -3.278  1.00  0.00     0.103 C 
ATOM     13  Cl  UNL     1      -1.148  -0.503  -3.474  1.00  0.00    -0.071 Cl
ENDBRANCH   6  10
ENDBRANCH   3   5
ENDBRANCH   2   3
ENDBRANCH   1   2
BRANCH   1  14
ATOM     14  C   UNL     1      -1.921   7.149  -3.095  1.00  0.00    -0.007 A 
ATOM     15  C   UNL     1      -2.889   6.324  -3.668  1.00  0.00     0.054 A 
ATOM     16  C   UNL     1      -2.304   8.291  -2.392  1.00  0.00     0.007 A 
ATOM     17  C   UNL     1      -4.241   6.643  -3.538  1.00  0.00     0.127 A 
ATOM     18  C   UNL     1      -3.655   8.610  -2.263  1.00  0.00     0.004 A 
ATOM     19  C   UNL     1      -4.624   7.785  -2.836  1.00  0.00     0.047 A 
BRANCH  17  20
ATOM     20  O   UNL     1      -5.187   5.839  -4.096  1.00  0.00    -0.457 OA
BRANCH  20  21
ATOM     21  C   UNL     1      -5.199   4.505  -3.725  1.00  0.00     0.127 A 
ATOM     22  C   UNL     1      -5.532   4.171  -2.424  1.00  0.00     0.047 A 
ATOM     23  C   UNL     1      -4.879   3.541  -4.663  1.00  0.00     0.047 A 
ATOM     24  C   UNL     1      -5.544   2.829  -2.050  1.00  0.00     0.004 A 
ATOM     25  C   UNL     1      -4.893   2.197  -4.288  1.00  0.00     0.004 A 
ATOM     26  C   UNL     1      -5.226   1.841  -2.981  1.00  0.00     0.000 A 
ENDBRANCH  20  21
ENDBRANCH  17  20
ENDBRANCH   1  14
TORSDOF 7
ENDMDL
MODEL 2
REMARK VINA RESULT:    -6.480      3.379      5.408
REMARK INTER + INTRA:         -12.302
REMARK INTER:                 -10.164
REMARK INTRA:                  -2.138
REMARK UNBOUND:                -3.171
REMARK SMILES CC1(C)[C@H](C=C(Cl)Cl)[C@H]1C(=O)OCc1cccc(Oc2ccccc2)c1
REMARK SMILES IDX 13 1 12 2 10 3 11 4 9 5 4 6 2 7 1 8 3 9 5 10 7 11 6 12 8 13
REMARK SMILES IDX 14 14 26 15 15 16 18 17 16 18 17 19 19 20 20 21 21 22 25 23
REMARK SMILES IDX 22 24 24 25 23 26
REMARK H PARENT
REMARK Flexibility Score: inf
ROOT
ATOM      1  C   UNL     1      -2.801   3.817   0.239  1.00  0.00     0.268 C 
ENDROOT
BRANCH   1   2
ATOM      2  O   UNL     1      -2.334   5.128  -0.052  1.00  0.00    -0.461 OA
BRANCH   2   3
ATOM      3  C   UNL     1      -1.220   5.201  -0.837  1.00  0.00     0.310 C 
ATOM      4  O   UNL     1      -0.244   4.465  -0.788  1.00  0.00    -0.252 OA
BRANCH   3   5
ATOM      5  C   UNL     1      -1.303   6.318  -1.812  1.00  0.00     0.113 C 
ATOM      6  C   UNL     1      -2.637   6.642  -2.407  1.00  0.00     0.035 C 
ATOM      7  C   UNL     1      -1.561   6.032  -3.257  1.00  0.00    -0.014 C 
ATOM      8  C   UNL     1      -0.938   6.898  -4.300  1.00  0.00     0.012 C 
ATOM      9  C   UNL     1      -1.657   4.599  -3.661  1.00  0.00     0.012 C 
BRANCH   6  10
ATOM     10  C   UNL     1      -2.998   8.043  -2.567  1.00  0.00     0.011 C 
ATOM     11  Cl  UNL     1      -5.639   7.567  -2.818  1.00  0.00    -0.071 Cl
ATOM     12  C   UNL     1      -4.225   8.557  -2.747  1.00  0.00     0.103 C 
ATOM     13  Cl  UNL     1      -4.441  10.263  -2.921  1.00  0.00    -0.071 Cl
ENDBRANCH   6  10
ENDBRANCH   3   5
ENDBRANCH   2   3
ENDBRANCH   1   2
BRANCH   1  14
ATOM     14  C   UNL     1      -3.740   3.376  -0.832  1.00  0.00    -0.007 A 
ATOM     15  C   UNL     1      -4.840   4.167  -1.165  1.00  0.00     0.054 A 
ATOM     16  C   UNL     1      -3.517   2.173  -1.503  1.00  0.00     0.007 A 
ATOM     17  C   UNL     1      -5.717   3.753  -2.167  1.00  0.00     0.127 A 
ATOM     18  C   UNL     1      -4.394   1.760  -2.504  1.00  0.00     0.004 A 
ATOM     19  C   UNL     1      -5.494   2.551  -2.837  1.00  0.00     0.047 A 
BRANCH  17  20
ATOM     20  O   UNL     1      -6.791   4.525  -2.492  1.00  0.00    -0.457 OA
BRANCH  20  21
ATOM     21  C   UNL     1      -7.827   4.603  -1.578  1.00  0.00     0.127 A 
ATOM     22  C   UNL     1      -8.530   3.455  -1.256  1.00  0.00     0.047 A 
ATOM     23  C   UNL     1      -8.135   5.826  -1.011  1.00  0.00     0.047 A 
ATOM     24  C   UNL     1      -9.574   3.534  -0.336  1.00  0.00     0.004 A 
ATOM     25  C   UNL     1      -9.180   5.904  -0.089  1.00  0.00     0.004 A 
ATOM     26  C   UNL     1      -9.899   4.757   0.248  1.00  0.00     0.000 A 
ENDBRANCH  20  21
ENDBRANCH  17  20
ENDBRANCH   1  14
TORSDOF 7
ENDMDL
MODEL 3
REMARK VINA RESULT:    -6.344      2.817      6.006
REMARK INTER + INTRA:         -12.111
REMARK INTER:                  -9.191
REMARK INTRA:                  -2.919
REMARK UNBOUND:                -3.171
REMARK SMILES CC1(C)[C@H](C=C(Cl)Cl)[C@H]1C(=O)OCc1cccc(Oc2ccccc2)c1
REMARK SMILES IDX 13 1 12 2 10 3 11 4 9 5 4 6 2 7 1 8 3 9 5 10 7 11 6 12 8 13
REMARK SMILES IDX 14 14 26 15 15 16 18 17 16 18 17 19 19 20 20 21 21 22 25 23
REMARK SMILES IDX 22 24 24 25 23 26
REMARK H PARENT
REMARK Flexibility Score: inf
ROOT
ATOM      1  C   UNL     1      -5.128   2.873  -4.647  1.00  0.00     0.268 C 
ENDROOT
BRANCH   1   2
ATOM      2  O   UNL     1      -4.412   3.899  -3.971  1.00  0.00    -0.461 OA
BRANCH   2   3
ATOM      3  C   UNL     1      -4.906   4.265  -2.753  1.00  0.00     0.310 C 
ATOM      4  O   UNL     1      -6.060   4.142  -2.367  1.00  0.00    -0.252 OA
BRANCH   3   5
ATOM      5  C   UNL     1      -3.856   4.857  -1.886  1.00  0.00     0.113 C 
ATOM      6  C   UNL     1      -2.424   4.560  -2.202  1.00  0.00     0.035 C 
ATOM      7  C   UNL     1      -3.059   3.983  -0.970  1.00  0.00    -0.014 C 
ATOM      8  C   UNL     1      -2.609   4.516   0.348  1.00  0.00     0.012 C 
ATOM      9  C   UNL     1      -3.417   2.535  -0.930  1.00  0.00     0.012 C 
BRANCH   6  10
ATOM     10  C   UNL     1      -1.456   5.642  -2.094  1.00  0.00     0.011 C 
ATOM     11  Cl  UNL     1      -2.094   6.752  -4.464  1.00  0.00    -0.071 Cl
ATOM     12  C   UNL     1      -1.223   6.623  -2.978  1.00  0.00     0.103 C 
ATOM     13  Cl  UNL     1      -0.016   7.820  -2.659  1.00  0.00    -0.071 Cl
ENDBRANCH   6  10
ENDBRANCH   3   5
ENDBRANCH   2   3
ENDBRANCH   1   2
BRANCH   1  14
ATOM     14  C   UNL     1      -4.413   1.575  -4.478  1.00  0.00    -0.007 A 
ATOM     15  C   UNL     1      -3.029   1.559  -4.302  1.00  0.00     0.054 A 
ATOM     16  C   UNL     1      -5.129   0.378  -4.493  1.00  0.00     0.007 A 
ATOM     17  C   UNL     1      -2.362   0.345  -4.143  1.00  0.00     0.127 A 
ATOM     18  C   UNL     1      -4.461  -0.836  -4.335  1.00  0.00     0.004 A 
ATOM     19  C   UNL     1      -3.077  -0.852  -4.160  1.00  0.00     0.047 A 
BRANCH  17  20
ATOM     20  O   UNL     1      -1.011   0.328  -3.972  1.00  0.00    -0.457 OA
BRANCH  20  21
ATOM     21  C   UNL     1      -0.509   0.786  -2.766  1.00  0.00     0.127 A 
ATOM     22  C   UNL     1       0.075   2.040  -2.713  1.00  0.00     0.047 A 
ATOM     23  C   UNL     1      -0.602  -0.020  -1.647  1.00  0.00     0.047 A 
ATOM     24  C   UNL     1       0.581   2.502  -1.498  1.00  0.00     0.004 A 
ATOM     25  C   UNL     1      -0.096   0.443  -0.432  1.00  0.00     0.004 A 
ATOM     26  C   UNL     1       0.495   1.704  -0.358  1.00  0.00     0.000 A 
ENDBRANCH  20  21
ENDBRANCH  17  20
ENDBRANCH   1  14
TORSDOF 7
ENDMDL
MODEL 4
REMARK VINA RESULT:    -6.312      2.286      4.491
REMARK INTER + INTRA:         -12.065
REMARK INTER:                  -9.930
REMARK INTRA:                  -2.136
REMARK UNBOUND:                -3.171
REMARK SMILES CC1(C)[C@H](C=C(Cl)Cl)[C@H]1C(=O)OCc1cccc(Oc2ccccc2)c1
REMARK SMILES IDX 13 1 12 2 10 3 11 4 9 5 4 6 2 7 1 8 3 9 5 10 7 11 6 12 8 13
REMARK SMILES IDX 14 14 26 15 15 16 18 17 16 18 17 19 19 20 20 21 21 22 25 23
REMARK SMILES IDX 22 24 24 25 23 26
REMARK H PARENT
REMARK Flexibility Score: inf
ROOT
ATOM      1  C   UNL     1      -4.737   1.951  -3.961  1.00  0.00     0.268 C 
ENDROOT
BRANCH   1   2
ATOM      2  O   UNL     1      -3.330   1.993  -3.757  1.00  0.00    -0.461 OA
BRANCH   2   3
ATOM      3  C   UNL     1      -2.884   1.471  -2.578  1.00  0.00     0.310 C 
ATOM      4  O   UNL     1      -3.302   0.464  -2.023  1.00  0.00    -0.252 OA
BRANCH   3   5
ATOM      5  C   UNL     1      -1.783   2.279  -1.996  1.00  0.00     0.113 C 
ATOM      6  C   UNL     1      -1.368   2.002  -0.586  1.00  0.00     0.035 C 
ATOM      7  C   UNL     1      -2.074   3.282  -0.926  1.00  0.00    -0.014 C 
ATOM      8  C   UNL     1      -1.278   4.542  -0.863  1.00  0.00     0.012 C 
ATOM      9  C   UNL     1      -3.503   3.467  -0.537  1.00  0.00     0.012 C 
BRANCH   6  10
ATOM     10  C   UNL     1       0.054   2.005  -0.272  1.00  0.00     0.011 C 
ATOM     11  Cl  UNL     1       0.265  -0.678  -0.160  1.00  0.00    -0.071 Cl
ATOM     12  C   UNL     1       0.850   0.944  -0.070  1.00  0.00     0.103 C 
ATOM     13  Cl  UNL     1       2.525   1.165   0.297  1.00  0.00    -0.071 Cl
ENDBRANCH   6  10
ENDBRANCH   3   5
ENDBRANCH   2   3
ENDBRANCH   1   2
BRANCH   1  14
ATOM     14  C   UNL     1      -5.353   3.201  -3.430  1.00  0.00    -0.007 A 
ATOM     15  C   UNL     1      -4.862   4.444  -3.829  1.00  0.00     0.054 A 
ATOM     16  C   UNL     1      -6.421   3.126  -2.536  1.00  0.00     0.007 A 
ATOM     17  C   UNL     1      -5.440   5.613  -3.332  1.00  0.00     0.127 A 
ATOM     18  C   UNL     1      -6.997   4.295  -2.039  1.00  0.00     0.004 A 
ATOM     19  C   UNL     1      -6.507   5.538  -2.438  1.00  0.00     0.047 A 
BRANCH  17  20
ATOM     20  O   UNL     1      -4.961   6.826  -3.721  1.00  0.00    -0.457 OA
BRANCH  20  21
ATOM     21  C   UNL     1      -3.702   7.195  -3.278  1.00  0.00     0.127 A 
ATOM     22  C   UNL     1      -3.556   7.667  -1.985  1.00  0.00     0.047 A 
ATOM     23  C   UNL     1      -2.625   7.083  -4.136  1.00  0.00     0.047 A 
ATOM     24  C   UNL     1      -2.288   8.038  -1.538  1.00  0.00     0.004 A 
ATOM     25  C   UNL     1      -1.357   7.454  -3.688  1.00  0.00     0.004 A 
ATOM     26  C   UNL     1      -1.189   7.931  -2.388  1.00  0.00     0.000 A 
ENDBRANCH  20  21
ENDBRANCH  17  20
ENDBRANCH   1  14
TORSDOF 7
ENDMDL
MODEL 5
REMARK VINA RESULT:    -6.286      2.700      5.216
REMARK INTER + INTRA:         -12.028
REMARK INTER:                  -8.739
REMARK INTRA:                  -3.290
REMARK UNBOUND:                -3.171
REMARK SMILES CC1(C)[C@H](C=C(Cl)Cl)[C@H]1C(=O)OCc1cccc(Oc2ccccc2)c1
REMARK SMILES IDX 13 1 12 2 10 3 11 4 9 5 4 6 2 7 1 8 3 9 5 10 7 11 6 12 8 13
REMARK SMILES IDX 14 14 26 15 15 16 18 17 16 18 17 19 19 20 20 21 21 22 25 23
REMARK SMILES IDX 22 24 24 25 23 26
REMARK H PARENT
REMARK Flexibility Score: inf
ROOT
ATOM      1  C   UNL     1      -0.221   1.622  -0.599  1.00  0.00     0.268 C 
ENDROOT
BRANCH   1   2
ATOM      2  O   UNL     1      -0.071   3.031  -0.723  1.00  0.00    -0.461 OA
BRANCH   2   3
ATOM      3  C   UNL     1       0.846   3.452  -1.642  1.00  0.00     0.310 C 
ATOM      4  O   UNL     1       1.910   2.912  -1.910  1.00  0.00    -0.252 OA
BRANCH   3   5
ATOM      5  C   UNL     1       0.411   4.695  -2.327  1.00  0.00     0.113 C 
ATOM      6  C   UNL     1      -1.053   4.909  -2.546  1.00  0.00     0.035 C 
ATOM      7  C   UNL     1      -0.150   4.630  -3.712  1.00  0.00    -0.014 C 
ATOM      8  C   UNL     1       0.109   5.750  -4.663  1.00  0.00     0.012 C 
ATOM      9  C   UNL     1      -0.182   3.292  -4.371  1.00  0.00     0.012 C 
BRANCH   6  10
ATOM     10  C   UNL     1      -1.594   6.244  -2.336  1.00  0.00     0.011 C 
ATOM     11  Cl  UNL     1      -2.746   5.651   0.027  1.00  0.00    -0.071 Cl
ATOM     12  C   UNL     1      -2.321   6.678  -1.295  1.00  0.00     0.103 C 
ATOM     13  Cl  UNL     1      -2.874   8.316  -1.236  1.00  0.00    -0.071 Cl
ENDBRANCH   6  10
ENDBRANCH   3   5
ENDBRANCH   2   3
ENDBRANCH   1   2
BRANCH   1  14
ATOM     14  C   UNL     1      -1.277   1.151  -1.541  1.00  0.00    -0.007 A 
ATOM     15  C   UNL     1      -2.517   1.789  -1.574  1.00  0.00     0.054 A 
ATOM     16  C   UNL     1      -1.023   0.074  -2.390  1.00  0.00     0.007 A 
ATOM     17  C   UNL     1      -3.504   1.348  -2.456  1.00  0.00     0.127 A 
ATOM     18  C   UNL     1      -2.010  -0.367  -3.271  1.00  0.00     0.004 A 
ATOM     19  C   UNL     1      -3.250   0.271  -3.304  1.00  0.00     0.047 A 
BRANCH  17  20
ATOM     20  O   UNL     1      -4.714   1.970  -2.488  1.00  0.00    -0.457 OA
BRANCH  20  21
ATOM     21  C   UNL     1      -4.759   3.268  -2.966  1.00  0.00     0.127 A 
ATOM     22  C   UNL     1      -4.099   3.575  -4.143  1.00  0.00     0.047 A 
ATOM     23  C   UNL     1      -5.462   4.224  -2.257  1.00  0.00     0.047 A 
ATOM     24  C   UNL     1      -4.144   4.883  -4.625  1.00  0.00     0.004 A 
ATOM     25  C   UNL     1      -5.507   5.533  -2.740  1.00  0.00     0.004 A 
ATOM     26  C   UNL     1      -4.848   5.861  -3.924  1.00  0.00     0.000 A 
ENDBRANCH  20  21
ENDBRANCH  17  20
ENDBRANCH   1  14
TORSDOF 7
ENDMDL
