MODEL 1
REMARK VINA RESULT:    -6.805      0.000      0.000
REMARK INTER + INTRA:         -11.668
REMARK INTER:                  -9.987
REMARK INTRA:                  -1.681
REMARK UNBOUND:                -1.681
REMARK SMILES CC1(C)C(C=C(Br)Br)C1C(=O)OC(C#N)c1cccc(Oc2ccccc2)c1
REMARK SMILES IDX 13 1 12 2 10 3 11 4 9 5 4 6 2 7 1 8 3 9 5 10 7 11 6 12 8 13
REMARK SMILES IDX 16 14 28 15 17 16 20 17 18 18 19 19 21 20 22 21 23 22 27 23
REMARK SMILES IDX 24 24 26 25 25 26 14 27 15 28
REMARK H PARENT
REMARK Flexibility Score: inf
ROOT
ATOM      1  C   UNL     1       1.618   3.773  -2.736  1.00  0.00     0.309 C
ENDROOT
BRANCH   1   2
ATOM      2  O   UNL     1       0.799   4.899  -3.077  1.00  0.00    -0.442 OA
BRANCH   2   3
ATOM      3  C   UNL     1       0.493   5.730  -2.045  1.00  0.00     0.311 C
ATOM      4  O   UNL     1       0.977   5.720  -0.922  1.00  0.00    -0.252 OA
BRANCH   3   5
ATOM      5  C   UNL     1      -0.553   6.712  -2.432  1.00  0.00     0.113 C
ATOM      6  C   UNL     1      -1.987   6.327  -2.258  1.00  0.00     0.035 C
ATOM      7  C   UNL     1      -1.406   6.462  -3.634  1.00  0.00    -0.014 C
ATOM      8  C   UNL     1      -1.215   5.209  -4.422  1.00  0.00     0.012 C
ATOM      9  C   UNL     1      -1.757   7.646  -4.473  1.00  0.00     0.012 C
BRANCH   6  10
ATOM     10  C   UNL     1      -2.289   5.014  -1.709  1.00  0.00     0.001 C
ATOM     11  Br  UNL     1      -5.009   5.044  -2.535  1.00  0.00    -0.043 Br
ATOM     12  C   UNL     1      -3.461   4.357  -1.738  1.00  0.00     0.057 C
ATOM     13  Br  UNL     1      -3.637   2.658  -0.964  1.00  0.00    -0.043 Br
ENDBRANCH   6  10
ENDBRANCH   3   5
ENDBRANCH   2   3
ENDBRANCH   1   2
BRANCH   1  14
ATOM     14  C   UNL     1       0.762   2.583  -2.470  1.00  0.00     0.011 A
ATOM     15  C   UNL     1       0.119   1.936  -3.526  1.00  0.00     0.055 A
ATOM     16  C   UNL     1       0.604   2.114  -1.166  1.00  0.00     0.009 A
ATOM     17  C   UNL     1      -0.682   0.822  -3.277  1.00  0.00     0.127 A
ATOM     18  C   UNL     1      -0.198   1.000  -0.918  1.00  0.00     0.004 A
ATOM     19  C   UNL     1      -0.841   0.354  -1.973  1.00  0.00     0.047 A
BRANCH  17  20
ATOM     20  O   UNL     1      -1.311   0.190  -4.307  1.00  0.00    -0.457 OA
BRANCH  20  21
ATOM     21  C   UNL     1      -2.691   0.289  -4.376  1.00  0.00     0.127 A
ATOM     22  C   UNL     1      -3.269   1.533  -4.552  1.00  0.00     0.047 A
ATOM     23  C   UNL     1      -3.455  -0.859  -4.267  1.00  0.00     0.047 A
ATOM     24  C   UNL     1      -4.659   1.634  -4.621  1.00  0.00     0.004 A
ATOM     25  C   UNL     1      -4.844  -0.759  -4.336  1.00  0.00     0.004 A
ATOM     26  C   UNL     1      -5.447   0.487  -4.514  1.00  0.00     0.000 A
ENDBRANCH  20  21
ENDBRANCH  17  20
ENDBRANCH   1  14
BRANCH   1  27
ATOM     27  C   UNL     1       2.600   3.537  -3.814  1.00  0.00     0.113 C
ATOM     28  N   UNL     1       3.379   3.352  -4.654  1.00  0.00    -0.194 NA
ENDBRANCH   1  27
TORSDOF 8
ENDMDL
MODEL 2
REMARK VINA RESULT:    -6.638      1.665      2.196
REMARK INTER + INTRA:         -11.423
REMARK INTER:                 -10.951
REMARK INTRA:                  -0.472
REMARK UNBOUND:                -1.681
REMARK SMILES CC1(C)C(C=C(Br)Br)C1C(=O)OC(C#N)c1cccc(Oc2ccccc2)c1
REMARK SMILES IDX 13 1 12 2 10 3 11 4 9 5 4 6 2 7 1 8 3 9 5 10 7 11 6 12 8 13
REMARK SMILES IDX 16 14 28 15 17 16 20 17 18 18 19 19 21 20 22 21 23 22 27 23
REMARK SMILES IDX 24 24 26 25 25 26 14 27 15 28
REMARK H PARENT
REMARK Flexibility Score: inf
ROOT
ATOM      1  C   UNL     1       0.857   3.390  -2.415  1.00  0.00     0.309 C
ENDROOT
BRANCH   1   2
ATOM      2  O   UNL     1      -0.264   3.986  -3.082  1.00  0.00    -0.442 OA
BRANCH   2   3
ATOM      3  C   UNL     1      -1.211   4.518  -2.264  1.00  0.00     0.311 C
ATOM      4  O   UNL     1      -2.284   4.019  -1.956  1.00  0.00    -0.252 OA
BRANCH   3   5
ATOM      5  C   UNL     1      -0.794   5.847  -1.745  1.00  0.00     0.113 C
ATOM      6  C   UNL     1      -1.828   6.922  -1.636  1.00  0.00     0.035 C
ATOM      7  C   UNL     1      -0.740   7.025  -2.664  1.00  0.00    -0.014 C
ATOM      8  C   UNL     1      -1.133   6.859  -4.094  1.00  0.00     0.012 C
ATOM      9  C   UNL     1       0.380   7.991  -2.462  1.00  0.00     0.012 C
BRANCH   6  10
ATOM     10  C   UNL     1      -3.193   6.612  -2.033  1.00  0.00     0.001 C
ATOM     11  Br  UNL     1      -3.888   9.313  -2.583  1.00  0.00    -0.043 Br
ATOM     12  C   UNL     1      -4.148   7.464  -2.440  1.00  0.00     0.057 C
ATOM     13  Br  UNL     1      -5.857   6.851  -2.911  1.00  0.00    -0.043 Br
ENDBRANCH   6  10
ENDBRANCH   3   5
ENDBRANCH   2   3
ENDBRANCH   1   2
BRANCH   1  14
ATOM     14  C   UNL     1       0.478   2.053  -1.879  1.00  0.00     0.011 A
ATOM     15  C   UNL     1      -0.309   1.191  -2.644  1.00  0.00     0.055 A
ATOM     16  C   UNL     1       0.910   1.662  -0.611  1.00  0.00     0.009 A
ATOM     17  C   UNL     1      -0.662  -0.061  -2.141  1.00  0.00     0.127 A
ATOM     18  C   UNL     1       0.555   0.410  -0.109  1.00  0.00     0.004 A
ATOM     19  C   UNL     1      -0.231  -0.452  -0.874  1.00  0.00     0.047 A
BRANCH  17  20
ATOM     20  O   UNL     1      -1.431  -0.902  -2.887  1.00  0.00    -0.457 OA
BRANCH  20  21
ATOM     21  C   UNL     1      -2.721  -0.499  -3.187  1.00  0.00     0.127 A
ATOM     22  C   UNL     1      -3.347  -1.019  -4.305  1.00  0.00     0.047 A
ATOM     23  C   UNL     1      -3.351   0.415  -2.361  1.00  0.00     0.047 A
ATOM     24  C   UNL     1      -4.647  -0.613  -4.608  1.00  0.00     0.004 A
ATOM     25  C   UNL     1      -4.650   0.822  -2.664  1.00  0.00     0.004 A
ATOM     26  C   UNL     1      -5.299   0.307  -3.786  1.00  0.00     0.000 A
ENDBRANCH  20  21
ENDBRANCH  17  20
ENDBRANCH   1  14
BRANCH   1  27
ATOM     27  C   UNL     1       2.002   3.325  -3.347  1.00  0.00     0.113 C
ATOM     28  N   UNL     1       2.901   3.263  -4.078  1.00  0.00    -0.194 NA
ENDBRANCH   1  27
TORSDOF 8
ENDMDL
MODEL 3
REMARK VINA RESULT:    -6.635      3.265      6.608
REMARK INTER + INTRA:         -11.418
REMARK INTER:                  -9.919
REMARK INTRA:                  -1.500
REMARK UNBOUND:                -1.681
REMARK SMILES CC1(C)C(C=C(Br)Br)C1C(=O)OC(C#N)c1cccc(Oc2ccccc2)c1
REMARK SMILES IDX 13 1 12 2 10 3 11 4 9 5 4 6 2 7 1 8 3 9 5 10 7 11 6 12 8 13
REMARK SMILES IDX 16 14 28 15 17 16 20 17 18 18 19 19 21 20 22 21 23 22 27 23
REMARK SMILES IDX 24 24 26 25 25 26 14 27 15 28
REMARK H PARENT
REMARK Flexibility Score: inf
ROOT
ATOM      1  C   UNL     1      -4.434   1.213  -2.841  1.00  0.00     0.309 C
ENDROOT
BRANCH   1   2
ATOM      2  O   UNL     1      -3.070   1.337  -3.266  1.00  0.00    -0.442 OA
BRANCH   2   3
ATOM      3  C   UNL     1      -2.145   0.835  -2.404  1.00  0.00     0.311 C
ATOM      4  O   UNL     1      -1.437  -0.148  -2.573  1.00  0.00    -0.252 OA
BRANCH   3   5
ATOM      5  C   UNL     1      -2.070   1.643  -1.159  1.00  0.00     0.113 C
ATOM      6  C   UNL     1      -1.198   2.857  -1.153  1.00  0.00     0.035 C
ATOM      7  C   UNL     1      -0.815   1.651  -0.347  1.00  0.00    -0.014 C
ATOM      8  C   UNL     1       0.366   0.865  -0.812  1.00  0.00     0.012 C
ATOM      9  C   UNL     1      -0.968   1.673   1.137  1.00  0.00     0.012 C
BRANCH   6  10
ATOM     10  C   UNL     1      -0.473   3.195  -2.368  1.00  0.00     0.001 C
ATOM     11  Br  UNL     1       0.378   5.738  -1.425  1.00  0.00    -0.043 Br
ATOM     12  C   UNL     1       0.214   4.319  -2.635  1.00  0.00     0.057 C
ATOM     13  Br  UNL     1       1.084   4.554  -4.279  1.00  0.00    -0.043 Br
ENDBRANCH   6  10
ENDBRANCH   3   5
ENDBRANCH   2   3
ENDBRANCH   1   2
BRANCH   1  14
ATOM     14  C   UNL     1      -5.112   2.538  -2.918  1.00  0.00     0.011 A
ATOM     15  C   UNL     1      -4.615   3.529  -3.765  1.00  0.00     0.055 A
ATOM     16  C   UNL     1      -6.247   2.787  -2.145  1.00  0.00     0.009 A
ATOM     17  C   UNL     1      -5.251   4.768  -3.838  1.00  0.00     0.127 A
ATOM     18  C   UNL     1      -6.882   4.026  -2.218  1.00  0.00     0.004 A
ATOM     19  C   UNL     1      -6.384   5.017  -3.064  1.00  0.00     0.047 A
BRANCH  17  20
ATOM     20  O   UNL     1      -4.765   5.736  -4.663  1.00  0.00    -0.457 OA
BRANCH  20  21
ATOM     21  C   UNL     1      -3.790   6.581  -4.159  1.00  0.00     0.127 A
ATOM     22  C   UNL     1      -2.504   6.500  -4.659  1.00  0.00     0.047 A
ATOM     23  C   UNL     1      -4.129   7.486  -3.168  1.00  0.00     0.047 A
ATOM     24  C   UNL     1      -1.521   7.351  -4.152  1.00  0.00     0.004 A
ATOM     25  C   UNL     1      -3.147   8.336  -2.660  1.00  0.00     0.004 A
ATOM     26  C   UNL     1      -1.844   8.270  -3.153  1.00  0.00     0.000 A
ENDBRANCH  20  21
ENDBRANCH  17  20
ENDBRANCH   1  14
BRANCH   1  27
ATOM     27  C   UNL     1      -5.108   0.181  -3.655  1.00  0.00     0.113 C
ATOM     28  N   UNL     1      -5.634  -0.638  -4.287  1.00  0.00    -0.194 NA
ENDBRANCH   1  27
TORSDOF 8
ENDMDL
MODEL 4
REMARK VINA RESULT:    -6.576      4.401      6.762
REMARK INTER + INTRA:         -11.332
REMARK INTER:                 -10.194
REMARK INTRA:                  -1.138
REMARK UNBOUND:                -1.681
REMARK SMILES CC1(C)C(C=C(Br)Br)C1C(=O)OC(C#N)c1cccc(Oc2ccccc2)c1
REMARK SMILES IDX 13 1 12 2 10 3 11 4 9 5 4 6 2 7 1 8 3 9 5 10 7 11 6 12 8 13
REMARK SMILES IDX 16 14 28 15 17 16 20 17 18 18 19 19 21 20 22 21 23 22 27 23
REMARK SMILES IDX 24 24 26 25 25 26 14 27 15 28
REMARK H PARENT
REMARK Flexibility Score: inf
ROOT
ATOM      1  C   UNL     1      -4.302   1.563  -2.465  1.00  0.00     0.309 C
ENDROOT
BRANCH   1   2
ATOM      2  O   UNL     1      -2.946   1.670  -2.919  1.00  0.00    -0.442 OA
BRANCH   2   3
ATOM      3  C   UNL     1      -2.019   1.063  -2.131  1.00  0.00     0.311 C
ATOM      4  O   UNL     1      -1.355   0.073  -2.402  1.00  0.00    -0.252 OA
BRANCH   3   5
ATOM      5  C   UNL     1      -1.879   1.760  -0.825  1.00  0.00     0.113 C
ATOM      6  C   UNL     1      -1.016   2.978  -0.760  1.00  0.00     0.035 C
ATOM      7  C   UNL     1      -0.580   1.710  -0.086  1.00  0.00    -0.014 C
ATOM      8  C   UNL     1       0.577   0.980  -0.683  1.00  0.00     0.012 C
ATOM      9  C   UNL     1      -0.651   1.600   1.400  1.00  0.00     0.012 C
BRANCH   6  10
ATOM     10  C   UNL     1      -0.362   3.429  -1.979  1.00  0.00     0.001 C
ATOM     11  Br  UNL     1      -1.122   6.148  -1.652  1.00  0.00    -0.043 Br
ATOM     12  C   UNL     1      -0.314   4.676  -2.478  1.00  0.00     0.057 C
ATOM     13  Br  UNL     1       0.591   5.043  -4.079  1.00  0.00    -0.043 Br
ENDBRANCH   6  10
ENDBRANCH   3   5
ENDBRANCH   2   3
ENDBRANCH   1   2
BRANCH   1  14
ATOM     14  C   UNL     1      -4.960   2.899  -2.506  1.00  0.00     0.011 A
ATOM     15  C   UNL     1      -6.350   2.996  -2.438  1.00  0.00     0.055 A
ATOM     16  C   UNL     1      -4.185   4.055  -2.611  1.00  0.00     0.009 A
ATOM     17  C   UNL     1      -6.965   4.247  -2.476  1.00  0.00     0.127 A
ATOM     18  C   UNL     1      -4.801   5.306  -2.649  1.00  0.00     0.004 A
ATOM     19  C   UNL     1      -6.190   5.402  -2.582  1.00  0.00     0.047 A
BRANCH  17  20
ATOM     20  O   UNL     1      -8.321   4.342  -2.411  1.00  0.00    -0.457 OA
BRANCH  20  21
ATOM     21  C   UNL     1      -8.901   4.419  -1.155  1.00  0.00     0.127 A
ATOM     22  C   UNL     1      -8.732   5.568  -0.405  1.00  0.00     0.047 A
ATOM     23  C   UNL     1      -9.635   3.345  -0.684  1.00  0.00     0.047 A
ATOM     24  C   UNL     1      -9.315   5.647   0.860  1.00  0.00     0.004 A
ATOM     25  C   UNL     1     -10.217   3.423   0.580  1.00  0.00     0.004 A
ATOM     26  C   UNL     1     -10.059   4.574   1.353  1.00  0.00     0.000 A
ENDBRANCH  20  21
ENDBRANCH  17  20
ENDBRANCH   1  14
BRANCH   1  27
ATOM     27  C   UNL     1      -5.012   0.555  -3.279  1.00  0.00     0.113 C
ATOM     28  N   UNL     1      -5.575  -0.241  -3.909  1.00  0.00    -0.194 NA
ENDBRANCH   1  27
TORSDOF 8
ENDMDL
MODEL 5
REMARK VINA RESULT:    -6.544      3.499      6.579
REMARK INTER + INTRA:         -11.285
REMARK INTER:                 -10.058
REMARK INTRA:                  -1.227
REMARK UNBOUND:                -1.681
REMARK SMILES CC1(C)C(C=C(Br)Br)C1C(=O)OC(C#N)c1cccc(Oc2ccccc2)c1
REMARK SMILES IDX 13 1 12 2 10 3 11 4 9 5 4 6 2 7 1 8 3 9 5 10 7 11 6 12 8 13
REMARK SMILES IDX 16 14 28 15 17 16 20 17 18 18 19 19 21 20 22 21 23 22 27 23
REMARK SMILES IDX 24 24 26 25 25 26 14 27 15 28
REMARK H PARENT
REMARK Flexibility Score: inf
ROOT
ATOM      1  C   UNL     1      -4.718   1.476  -2.902  1.00  0.00     0.309 C
ENDROOT
BRANCH   1   2
ATOM      2  O   UNL     1      -3.402   1.749  -3.401  1.00  0.00    -0.442 OA
BRANCH   2   3
ATOM      3  C   UNL     1      -2.432   1.859  -2.454  1.00  0.00     0.311 C
ATOM      4  O   UNL     1      -1.820   0.947  -1.916  1.00  0.00    -0.252 OA
BRANCH   3   5
ATOM      5  C   UNL     1      -2.169   3.281  -2.111  1.00  0.00     0.113 C
ATOM      6  C   UNL     1      -1.156   3.580  -1.054  1.00  0.00     0.035 C
ATOM      7  C   UNL     1      -2.613   3.826  -0.791  1.00  0.00    -0.014 C
ATOM      8  C   UNL     1      -3.294   2.925   0.184  1.00  0.00     0.012 C
ATOM      9  C   UNL     1      -3.136   5.224  -0.777  1.00  0.00     0.012 C
BRANCH   6  10
ATOM     10  C   UNL     1      -0.469   2.465  -0.419  1.00  0.00     0.001 C
ATOM     11  Br  UNL     1       1.935   2.810  -1.896  1.00  0.00    -0.043 Br
ATOM     12  C   UNL     1       0.780   2.026  -0.648  1.00  0.00     0.057 C
ATOM     13  Br  UNL     1       1.478   0.559   0.289  1.00  0.00    -0.043 Br
ENDBRANCH   6  10
ENDBRANCH   3   5
ENDBRANCH   2   3
ENDBRANCH   1   2
BRANCH   1  14
ATOM     14  C   UNL     1      -5.510   2.737  -2.838  1.00  0.00     0.011 A
ATOM     15  C   UNL     1      -5.111   3.850  -3.580  1.00  0.00     0.055 A
ATOM     16  C   UNL     1      -6.651   2.805  -2.039  1.00  0.00     0.009 A
ATOM     17  C   UNL     1      -5.852   5.029  -3.521  1.00  0.00     0.127 A
ATOM     18  C   UNL     1      -7.391   3.986  -1.980  1.00  0.00     0.004 A
ATOM     19  C   UNL     1      -6.992   5.098  -2.721  1.00  0.00     0.047 A
BRANCH  17  20
ATOM     20  O   UNL     1      -5.462   6.116  -4.243  1.00  0.00    -0.457 OA
BRANCH  20  21
ATOM     21  C   UNL     1      -4.415   6.875  -3.749  1.00  0.00     0.127 A
ATOM     22  C   UNL     1      -4.684   7.879  -2.836  1.00  0.00     0.047 A
ATOM     23  C   UNL     1      -3.128   6.611  -4.181  1.00  0.00     0.047 A
ATOM     24  C   UNL     1      -3.629   8.645  -2.338  1.00  0.00     0.004 A
ATOM     25  C   UNL     1      -2.074   7.377  -3.683  1.00  0.00     0.004 A
ATOM     26  C   UNL     1      -2.324   8.393  -2.761  1.00  0.00     0.000 A
ENDBRANCH  20  21
ENDBRANCH  17  20
ENDBRANCH   1  14
BRANCH   1  27
ATOM     27  C   UNL     1      -5.358   0.445  -3.745  1.00  0.00     0.113 C
ATOM     28  N   UNL     1      -5.851  -0.371  -4.406  1.00  0.00    -0.194 NA
ENDBRANCH   1  27
TORSDOF 8
ENDMDL
