MODEL 1
REMARK VINA RESULT:    -6.865      0.000      0.000
REMARK INTER + INTRA:         -11.549
REMARK INTER:                 -10.075
REMARK INTRA:                  -1.474
REMARK UNBOUND:                -1.474
REMARK SMILES CC1(C)C(C=C(Br)Br)C1C(=O)OC(C#N)c1cccc(Oc2ccccc2)c1
REMARK SMILES IDX 13 1 12 2 10 3 11 4 9 5 4 6 2 7 1 8 3 9 5 10 7 11 6 12 8 13
REMARK SMILES IDX 16 14 28 15 17 16 20 17 18 18 19 19 21 20 22 21 23 22 27 23
REMARK SMILES IDX 24 24 26 25 25 26 14 27 15 28
REMARK H PARENT
REMARK Flexibility Score: inf
ROOT
ATOM      1  C   UNL     1      -4.326   1.523  -2.870  1.00  0.00     0.309 C
ENDROOT
BRANCH   1   2
ATOM      2  O   UNL     1      -2.998   1.629  -3.403  1.00  0.00    -0.442 OA
BRANCH   2   3
ATOM      3  C   UNL     1      -2.001   1.253  -2.558  1.00  0.00     0.311 C
ATOM      4  O   UNL     1      -1.773   0.126  -2.141  1.00  0.00    -0.252 OA
BRANCH   3   5
ATOM      5  C   UNL     1      -1.161   2.413  -2.162  1.00  0.00     0.113 C
ATOM      6  C   UNL     1      -0.269   2.270  -0.971  1.00  0.00     0.035 C
ATOM      7  C   UNL     1      -1.469   3.168  -0.909  1.00  0.00    -0.014 C
ATOM      8  C   UNL     1      -2.607   2.729  -0.049  1.00  0.00     0.012 C
ATOM      9  C   UNL     1      -1.288   4.649  -0.948  1.00  0.00     0.012 C
BRANCH   6  10
ATOM     10  C   UNL     1      -0.259   0.998  -0.263  1.00  0.00     0.001 C
ATOM     11  Br  UNL     1       2.458   1.209   0.543  1.00  0.00    -0.043 Br
ATOM     12  C   UNL     1       0.763   0.429   0.398  1.00  0.00     0.057 C
ATOM     13  Br  UNL     1       0.560  -1.229   1.249  1.00  0.00    -0.043 Br
ENDBRANCH   6  10
ENDBRANCH   3   5
ENDBRANCH   2   3
ENDBRANCH   1   2
BRANCH   1  14
ATOM     14  C   UNL     1      -4.995   2.854  -2.905  1.00  0.00     0.011 A
ATOM     15  C   UNL     1      -4.380   3.929  -3.550  1.00  0.00     0.055 A
ATOM     16  C   UNL     1      -6.237   3.026  -2.294  1.00  0.00     0.009 A
ATOM     17  C   UNL     1      -5.008   5.173  -3.582  1.00  0.00     0.127 A
ATOM     18  C   UNL     1      -6.864   4.272  -2.327  1.00  0.00     0.004 A
ATOM     19  C   UNL     1      -6.249   5.346  -2.970  1.00  0.00     0.047 A
BRANCH  17  20
ATOM     20  O   UNL     1      -4.408   6.222  -4.210  1.00  0.00    -0.457 OA
BRANCH  20  21
ATOM     21  C   UNL     1      -3.331   6.821  -3.577  1.00  0.00     0.127 A
ATOM     22  C   UNL     1      -3.535   7.477  -2.377  1.00  0.00     0.047 A
ATOM     23  C   UNL     1      -2.079   6.747  -4.162  1.00  0.00     0.047 A
ATOM     24  C   UNL     1      -2.450   8.080  -1.739  1.00  0.00     0.004 A
ATOM     25  C   UNL     1      -0.996   7.351  -3.525  1.00  0.00     0.004 A
ATOM     26  C   UNL     1      -1.180   8.016  -2.313  1.00  0.00     0.000 A
ENDBRANCH  20  21
ENDBRANCH  17  20
ENDBRANCH   1  14
BRANCH   1  27
ATOM     27  C   UNL     1      -5.072   0.492  -3.619  1.00  0.00     0.113 C
ATOM     28  N   UNL     1      -5.660  -0.324  -4.198  1.00  0.00    -0.194 NA
ENDBRANCH   1  27
TORSDOF 8
ENDMDL
MODEL 2
REMARK VINA RESULT:    -6.612      2.873      5.223
REMARK INTER + INTRA:         -11.178
REMARK INTER:                  -9.759
REMARK INTRA:                  -1.419
REMARK UNBOUND:                -1.474
REMARK SMILES CC1(C)C(C=C(Br)Br)C1C(=O)OC(C#N)c1cccc(Oc2ccccc2)c1
REMARK SMILES IDX 13 1 12 2 10 3 11 4 9 5 4 6 2 7 1 8 3 9 5 10 7 11 6 12 8 13
REMARK SMILES IDX 16 14 28 15 17 16 20 17 18 18 19 19 21 20 22 21 23 22 27 23
REMARK SMILES IDX 24 24 26 25 25 26 14 27 15 28
REMARK H PARENT
REMARK Flexibility Score: inf
ROOT
ATOM      1  C   UNL     1      -0.955   2.350  -0.700  1.00  0.00     0.309 C
ENDROOT
BRANCH   1   2
ATOM      2  O   UNL     1      -0.162   3.192  -1.548  1.00  0.00    -0.442 OA
BRANCH   2   3
ATOM      3  C   UNL     1      -0.452   4.519  -1.484  1.00  0.00     0.311 C
ATOM      4  O   UNL     1      -0.063   5.319  -0.644  1.00  0.00    -0.252 OA
BRANCH   3   5
ATOM      5  C   UNL     1      -1.341   4.934  -2.600  1.00  0.00     0.113 C
ATOM      6  C   UNL     1      -0.742   5.101  -3.959  1.00  0.00     0.035 C
ATOM      7  C   UNL     1      -1.212   6.301  -3.191  1.00  0.00    -0.014 C
ATOM      8  C   UNL     1      -0.167   7.231  -2.669  1.00  0.00     0.012 C
ATOM      9  C   UNL     1      -2.475   6.988  -3.591  1.00  0.00     0.012 C
BRANCH   6  10
ATOM     10  C   UNL     1       0.680   4.841  -4.126  1.00  0.00     0.001 C
ATOM     11  Br  UNL     1       0.340   2.070  -4.663  1.00  0.00    -0.043 Br
ATOM     12  C   UNL     1       1.277   3.671  -4.411  1.00  0.00     0.057 C
ATOM     13  Br  UNL     1       3.140   3.553  -4.584  1.00  0.00    -0.043 Br
ENDBRANCH   6  10
ENDBRANCH   3   5
ENDBRANCH   2   3
ENDBRANCH   1   2
BRANCH   1  14
ATOM     14  C   UNL     1      -1.821   1.465  -1.528  1.00  0.00     0.011 A
ATOM     15  C   UNL     1      -3.127   1.853  -1.833  1.00  0.00     0.055 A
ATOM     16  C   UNL     1      -1.327   0.250  -2.001  1.00  0.00     0.009 A
ATOM     17  C   UNL     1      -3.937   1.025  -2.608  1.00  0.00     0.127 A
ATOM     18  C   UNL     1      -2.138  -0.578  -2.777  1.00  0.00     0.004 A
ATOM     19  C   UNL     1      -3.443  -0.191  -3.081  1.00  0.00     0.047 A
BRANCH  17  20
ATOM     20  O   UNL     1      -5.211   1.402  -2.905  1.00  0.00    -0.457 OA
BRANCH  20  21
ATOM     21  C   UNL     1      -5.434   2.736  -3.205  1.00  0.00     0.127 A
ATOM     22  C   UNL     1      -6.195   3.502  -2.341  1.00  0.00     0.047 A
ATOM     23  C   UNL     1      -4.890   3.267  -4.361  1.00  0.00     0.047 A
ATOM     24  C   UNL     1      -6.420   4.846  -2.643  1.00  0.00     0.004 A
ATOM     25  C   UNL     1      -5.115   4.609  -4.663  1.00  0.00     0.004 A
ATOM     26  C   UNL     1      -5.879   5.400  -3.804  1.00  0.00     0.000 A
ENDBRANCH  20  21
ENDBRANCH  17  20
ENDBRANCH   1  14
BRANCH   1  27
ATOM     27  C   UNL     1      -0.066   1.591   0.204  1.00  0.00     0.113 C
ATOM     28  N   UNL     1       0.636   0.990   0.905  1.00  0.00    -0.194 NA
ENDBRANCH   1  27
TORSDOF 8
ENDMDL
MODEL 3
REMARK VINA RESULT:    -6.602      2.024      4.172
REMARK INTER + INTRA:         -11.164
REMARK INTER:                 -10.393
REMARK INTRA:                  -0.771
REMARK UNBOUND:                -1.474
REMARK SMILES CC1(C)C(C=C(Br)Br)C1C(=O)OC(C#N)c1cccc(Oc2ccccc2)c1
REMARK SMILES IDX 13 1 12 2 10 3 11 4 9 5 4 6 2 7 1 8 3 9 5 10 7 11 6 12 8 13
REMARK SMILES IDX 16 14 28 15 17 16 20 17 18 18 19 19 21 20 22 21 23 22 27 23
REMARK SMILES IDX 24 24 26 25 25 26 14 27 15 28
REMARK H PARENT
REMARK Flexibility Score: inf
ROOT
ATOM      1  C   UNL     1      -4.150   1.677  -2.539  1.00  0.00     0.309 C
ENDROOT
BRANCH   1   2
ATOM      2  O   UNL     1      -2.874   1.823  -3.177  1.00  0.00    -0.442 OA
BRANCH   2   3
ATOM      3  C   UNL     1      -1.825   1.272  -2.512  1.00  0.00     0.311 C
ATOM      4  O   UNL     1      -1.670   0.093  -2.226  1.00  0.00    -0.252 OA
BRANCH   3   5
ATOM      5  C   UNL     1      -0.819   2.300  -2.139  1.00  0.00     0.113 C
ATOM      6  C   UNL     1       0.114   2.004  -1.009  1.00  0.00     0.035 C
ATOM      7  C   UNL     1      -0.954   3.046  -0.850  1.00  0.00    -0.014 C
ATOM      8  C   UNL     1      -2.089   2.729   0.066  1.00  0.00     0.012 C
ATOM      9  C   UNL     1      -0.584   4.492  -0.862  1.00  0.00     0.012 C
BRANCH   6  10
ATOM     10  C   UNL     1      -0.002   0.719  -0.335  1.00  0.00     0.001 C
ATOM     11  Br  UNL     1       2.375   1.048   1.189  1.00  0.00    -0.043 Br
ATOM     12  C   UNL     1       0.829   0.188   0.578  1.00  0.00     0.057 C
ATOM     13  Br  UNL     1       0.492  -1.498   1.328  1.00  0.00    -0.043 Br
ENDBRANCH   6  10
ENDBRANCH   3   5
ENDBRANCH   2   3
ENDBRANCH   1   2
BRANCH   1  14
ATOM     14  C   UNL     1      -4.877   2.979  -2.552  1.00  0.00     0.011 A
ATOM     15  C   UNL     1      -6.270   3.001  -2.477  1.00  0.00     0.055 A
ATOM     16  C   UNL     1      -4.164   4.175  -2.636  1.00  0.00     0.009 A
ATOM     17  C   UNL     1      -6.949   4.219  -2.488  1.00  0.00     0.127 A
ATOM     18  C   UNL     1      -4.844   5.392  -2.648  1.00  0.00     0.004 A
ATOM     19  C   UNL     1      -6.236   5.415  -2.574  1.00  0.00     0.047 A
BRANCH  17  20
ATOM     20  O   UNL     1      -8.308   4.242  -2.417  1.00  0.00    -0.457 OA
BRANCH  20  21
ATOM     21  C   UNL     1      -8.885   4.345  -1.161  1.00  0.00     0.127 A
ATOM     22  C   UNL     1      -8.706   5.505  -0.431  1.00  0.00     0.047 A
ATOM     23  C   UNL     1      -9.623   3.283  -0.670  1.00  0.00     0.047 A
ATOM     24  C   UNL     1      -9.286   5.610   0.834  1.00  0.00     0.004 A
ATOM     25  C   UNL     1     -10.202   3.387   0.595  1.00  0.00     0.004 A
ATOM     26  C   UNL     1     -10.035   4.550   1.346  1.00  0.00     0.000 A
ENDBRANCH  20  21
ENDBRANCH  17  20
ENDBRANCH   1  14
BRANCH   1  27
ATOM     27  C   UNL     1      -4.908   0.597  -3.202  1.00  0.00     0.113 C
ATOM     28  N   UNL     1      -5.505  -0.257  -3.713  1.00  0.00    -0.194 NA
ENDBRANCH   1  27
TORSDOF 8
ENDMDL
MODEL 4
REMARK VINA RESULT:    -6.560      3.417      5.678
REMARK INTER + INTRA:         -11.101
REMARK INTER:                 -10.149
REMARK INTRA:                  -0.953
REMARK UNBOUND:                -1.474
REMARK SMILES CC1(C)C(C=C(Br)Br)C1C(=O)OC(C#N)c1cccc(Oc2ccccc2)c1
REMARK SMILES IDX 13 1 12 2 10 3 11 4 9 5 4 6 2 7 1 8 3 9 5 10 7 11 6 12 8 13
REMARK SMILES IDX 16 14 28 15 17 16 20 17 18 18 19 19 21 20 22 21 23 22 27 23
REMARK SMILES IDX 24 24 26 25 25 26 14 27 15 28
REMARK H PARENT
REMARK Flexibility Score: inf
ROOT
ATOM      1  C   UNL     1      -0.735   1.603  -1.305  1.00  0.00     0.309 C
ENDROOT
BRANCH   1   2
ATOM      2  O   UNL     1       0.146   2.253  -2.232  1.00  0.00    -0.442 OA
BRANCH   2   3
ATOM      3  C   UNL     1       0.580   3.485  -1.855  1.00  0.00     0.311 C
ATOM      4  O   UNL     1       0.160   4.164  -0.929  1.00  0.00    -0.252 OA
BRANCH   3   5
ATOM      5  C   UNL     1       1.683   3.962  -2.730  1.00  0.00     0.113 C
ATOM      6  C   UNL     1       1.343   4.869  -3.869  1.00  0.00     0.035 C
ATOM      7  C   UNL     1       1.792   3.463  -4.136  1.00  0.00    -0.014 C
ATOM      8  C   UNL     1       0.770   2.507  -4.656  1.00  0.00     0.012 C
ATOM      9  C   UNL     1       3.166   3.211  -4.661  1.00  0.00     0.012 C
BRANCH   6  10
ATOM     10  C   UNL     1      -0.048   5.250  -4.058  1.00  0.00     0.001 C
ATOM     11  Br  UNL     1       0.122   7.559  -2.409  1.00  0.00    -0.043 Br
ATOM     12  C   UNL     1      -0.694   6.307  -3.537  1.00  0.00     0.057 C
ATOM     13  Br  UNL     1      -2.505   6.617  -3.913  1.00  0.00    -0.043 Br
ENDBRANCH   6  10
ENDBRANCH   3   5
ENDBRANCH   2   3
ENDBRANCH   1   2
BRANCH   1  14
ATOM     14  C   UNL     1      -1.784   0.847  -2.045  1.00  0.00     0.011 A
ATOM     15  C   UNL     1      -3.096   1.322  -2.075  1.00  0.00     0.055 A
ATOM     16  C   UNL     1      -1.455  -0.334  -2.709  1.00  0.00     0.009 A
ATOM     17  C   UNL     1      -4.078   0.615  -2.768  1.00  0.00     0.127 A
ATOM     18  C   UNL     1      -2.438  -1.041  -3.402  1.00  0.00     0.004 A
ATOM     19  C   UNL     1      -3.749  -0.567  -3.431  1.00  0.00     0.047 A
BRANCH  17  20
ATOM     20  O   UNL     1      -5.358   1.077  -2.797  1.00  0.00    -0.457 OA
BRANCH  20  21
ATOM     21  C   UNL     1      -5.554   2.410  -3.117  1.00  0.00     0.127 A
ATOM     22  C   UNL     1      -5.101   2.884  -4.334  1.00  0.00     0.047 A
ATOM     23  C   UNL     1      -6.197   3.233  -2.210  1.00  0.00     0.047 A
ATOM     24  C   UNL     1      -5.297   4.228  -4.657  1.00  0.00     0.004 A
ATOM     25  C   UNL     1      -6.393   4.576  -2.531  1.00  0.00     0.004 A
ATOM     26  C   UNL     1      -5.944   5.073  -3.755  1.00  0.00     0.000 A
ENDBRANCH  20  21
ENDBRANCH  17  20
ENDBRANCH   1  14
BRANCH   1  27
ATOM     27  C   UNL     1       0.055   0.742  -0.401  1.00  0.00     0.113 C
ATOM     28  N   UNL     1       0.673   0.057   0.303  1.00  0.00    -0.194 NA
ENDBRANCH   1  27
TORSDOF 8
ENDMDL
MODEL 5
REMARK VINA RESULT:    -6.535      1.902      2.447
REMARK INTER + INTRA:         -11.065
REMARK INTER:                  -9.500
REMARK INTRA:                  -1.565
REMARK UNBOUND:                -1.474
REMARK SMILES CC1(C)C(C=C(Br)Br)C1C(=O)OC(C#N)c1cccc(Oc2ccccc2)c1
REMARK SMILES IDX 13 1 12 2 10 3 11 4 9 5 4 6 2 7 1 8 3 9 5 10 7 11 6 12 8 13
REMARK SMILES IDX 16 14 28 15 17 16 20 17 18 18 19 19 21 20 22 21 23 22 27 23
REMARK SMILES IDX 24 24 26 25 25 26 14 27 15 28
REMARK H PARENT
REMARK Flexibility Score: inf
ROOT
ATOM      1  C   UNL     1      -4.642   1.421  -2.834  1.00  0.00     0.309 C
ENDROOT
BRANCH   1   2
ATOM      2  O   UNL     1      -3.291   1.577  -3.290  1.00  0.00    -0.442 OA
BRANCH   2   3
ATOM      3  C   UNL     1      -2.336   1.082  -2.457  1.00  0.00     0.311 C
ATOM      4  O   UNL     1      -1.624   0.107  -2.649  1.00  0.00    -0.252 OA
BRANCH   3   5
ATOM      5  C   UNL     1      -2.233   1.887  -1.212  1.00  0.00     0.113 C
ATOM      6  C   UNL     1      -1.341   3.087  -1.215  1.00  0.00     0.035 C
ATOM      7  C   UNL     1      -0.968   1.874  -0.415  1.00  0.00    -0.014 C
ATOM      8  C   UNL     1       0.193   1.068  -0.895  1.00  0.00     0.012 C
ATOM      9  C   UNL     1      -1.104   1.897   1.071  1.00  0.00     0.012 C
BRANCH   6  10
ATOM     10  C   UNL     1      -0.624   3.413  -2.439  1.00  0.00     0.001 C
ATOM     11  Br  UNL     1       0.551   5.779  -1.389  1.00  0.00    -0.043 Br
ATOM     12  C   UNL     1       0.179   4.465  -2.670  1.00  0.00     0.057 C
ATOM     13  Br  UNL     1       1.012   4.700  -4.334  1.00  0.00    -0.043 Br
ENDBRANCH   6  10
ENDBRANCH   3   5
ENDBRANCH   2   3
ENDBRANCH   1   2
BRANCH   1  14
ATOM     14  C   UNL     1      -5.345   2.735  -2.867  1.00  0.00     0.011 A
ATOM     15  C   UNL     1      -4.842   3.776  -3.649  1.00  0.00     0.055 A
ATOM     16  C   UNL     1      -6.506   2.923  -2.119  1.00  0.00     0.009 A
ATOM     17  C   UNL     1      -5.500   5.005  -3.680  1.00  0.00     0.127 A
ATOM     18  C   UNL     1      -7.164   4.153  -2.150  1.00  0.00     0.004 A
ATOM     19  C   UNL     1      -6.661   5.194  -2.930  1.00  0.00     0.047 A
BRANCH  17  20
ATOM     20  O   UNL     1      -5.009   6.021  -4.441  1.00  0.00    -0.457 OA
BRANCH  20  21
ATOM     21  C   UNL     1      -3.981   6.784  -3.911  1.00  0.00     0.127 A
ATOM     22  C   UNL     1      -4.263   7.684  -2.899  1.00  0.00     0.047 A
ATOM     23  C   UNL     1      -2.699   6.625  -4.407  1.00  0.00     0.047 A
ATOM     24  C   UNL     1      -3.228   8.452  -2.365  1.00  0.00     0.004 A
ATOM     25  C   UNL     1      -1.665   7.393  -3.873  1.00  0.00     0.004 A
ATOM     26  C   UNL     1      -1.929   8.306  -2.852  1.00  0.00     0.000 A
ENDBRANCH  20  21
ENDBRANCH  17  20
ENDBRANCH   1  14
BRANCH   1  27
ATOM     27  C   UNL     1      -5.318   0.394  -3.653  1.00  0.00     0.113 C
ATOM     28  N   UNL     1      -5.847  -0.408  -4.305  1.00  0.00    -0.194 NA
ENDBRANCH   1  27
TORSDOF 8
ENDMDL
