MODEL 1
REMARK VINA RESULT:    -6.514      0.000      0.000
REMARK INTER + INTRA:         -12.381
REMARK INTER:                  -9.180
REMARK INTRA:                  -3.201
REMARK UNBOUND:                -3.201
REMARK SMILES CC1(C)[C@H](C=C(Cl)Cl)[C@H]1C(=O)OCc1cccc(Oc2ccccc2)c1
REMARK SMILES IDX 13 1 12 2 10 3 11 4 9 5 4 6 2 7 1 8 3 9 5 10 7 11 6 12 8 13
REMARK SMILES IDX 14 14 26 15 15 16 18 17 16 18 17 19 19 20 20 21 21 22 25 23
REMARK SMILES IDX 22 24 24 25 23 26
REMARK H PARENT
REMARK Flexibility Score: inf
ROOT
ATOM      1  C   UNL     1      -0.343   6.703  -3.349  1.00  0.00     0.268 C 
ENDROOT
BRANCH   1   2
ATOM      2  O   UNL     1      -0.167   5.332  -3.017  1.00  0.00    -0.461 OA
BRANCH   2   3
ATOM      3  C   UNL     1       0.064   5.066  -1.698  1.00  0.00     0.310 C 
ATOM      4  O   UNL     1       0.686   5.766  -0.912  1.00  0.00    -0.252 OA
BRANCH   3   5
ATOM      5  C   UNL     1      -0.543   3.777  -1.280  1.00  0.00     0.113 C 
ATOM      6  C   UNL     1      -1.738   3.279  -2.030  1.00  0.00     0.035 C 
ATOM      7  C   UNL     1      -1.884   3.761  -0.616  1.00  0.00    -0.014 C 
ATOM      8  C   UNL     1      -2.173   2.739   0.431  1.00  0.00     0.012 C 
ATOM      9  C   UNL     1      -2.524   5.081  -0.345  1.00  0.00     0.012 C 
BRANCH   6  10
ATOM     10  C   UNL     1      -1.817   1.858  -2.337  1.00  0.00     0.011 C 
ATOM     11  Cl  UNL     1      -0.079   1.975  -4.393  1.00  0.00    -0.071 Cl
ATOM     12  C   UNL     1      -1.168   1.192  -3.304  1.00  0.00     0.103 C 
ATOM     13  Cl  UNL     1      -1.405  -0.509  -3.505  1.00  0.00    -0.071 Cl
ENDBRANCH   6  10
ENDBRANCH   3   5
ENDBRANCH   2   3
ENDBRANCH   1   2
BRANCH   1  14
ATOM     14  C   UNL     1      -1.774   7.080  -3.161  1.00  0.00    -0.007 A 
ATOM     15  C   UNL     1      -2.780   6.303  -3.735  1.00  0.00     0.054 A 
ATOM     16  C   UNL     1      -2.105   8.208  -2.411  1.00  0.00     0.007 A 
ATOM     17  C   UNL     1      -4.118   6.656  -3.558  1.00  0.00     0.127 A 
ATOM     18  C   UNL     1      -3.442   8.561  -2.235  1.00  0.00     0.004 A 
ATOM     19  C   UNL     1      -4.449   7.784  -2.808  1.00  0.00     0.047 A 
BRANCH  17  20
ATOM     20  O   UNL     1      -5.101   5.898  -4.117  1.00  0.00    -0.457 OA
BRANCH  20  21
ATOM     21  C   UNL     1      -5.186   4.570  -3.737  1.00  0.00     0.127 A 
ATOM     22  C   UNL     1      -5.552   4.264  -2.437  1.00  0.00     0.047 A 
ATOM     23  C   UNL     1      -4.903   3.583  -4.663  1.00  0.00     0.047 A 
ATOM     24  C   UNL     1      -5.638   2.926  -2.054  1.00  0.00     0.004 A 
ATOM     25  C   UNL     1      -4.990   2.245  -4.278  1.00  0.00     0.004 A 
ATOM     26  C   UNL     1      -5.358   1.917  -2.974  1.00  0.00     0.000 A 
ENDBRANCH  20  21
ENDBRANCH  17  20
ENDBRANCH   1  14
TORSDOF 7
ENDMDL
MODEL 2
REMARK VINA RESULT:    -6.418      3.353      5.403
REMARK INTER + INTRA:         -12.246
REMARK INTER:                 -10.119
REMARK INTRA:                  -2.126
REMARK UNBOUND:                -3.201
REMARK SMILES CC1(C)[C@H](C=C(Cl)Cl)[C@H]1C(=O)OCc1cccc(Oc2ccccc2)c1
REMARK SMILES IDX 13 1 12 2 10 3 11 4 9 5 4 6 2 7 1 8 3 9 5 10 7 11 6 12 8 13
REMARK SMILES IDX 14 14 26 15 15 16 18 17 16 18 17 19 19 20 20 21 21 22 25 23
REMARK SMILES IDX 22 24 24 25 23 26
REMARK H PARENT
REMARK Flexibility Score: inf
ROOT
ATOM      1  C   UNL     1      -2.729   3.708   0.060  1.00  0.00     0.268 C 
ENDROOT
BRANCH   1   2
ATOM      2  O   UNL     1      -2.348   5.061  -0.156  1.00  0.00    -0.461 OA
BRANCH   2   3
ATOM      3  C   UNL     1      -1.203   5.249  -0.873  1.00  0.00     0.310 C 
ATOM      4  O   UNL     1      -0.180   4.582  -0.801  1.00  0.00    -0.252 OA
BRANCH   3   5
ATOM      5  C   UNL     1      -1.316   6.401  -1.803  1.00  0.00     0.113 C 
ATOM      6  C   UNL     1      -2.660   6.721  -2.376  1.00  0.00     0.035 C 
ATOM      7  C   UNL     1      -1.580   6.167  -3.257  1.00  0.00    -0.014 C 
ATOM      8  C   UNL     1      -0.981   7.085  -4.270  1.00  0.00     0.012 C 
ATOM      9  C   UNL     1      -1.651   4.749  -3.715  1.00  0.00     0.012 C 
BRANCH   6  10
ATOM     10  C   UNL     1      -3.050   8.120  -2.479  1.00  0.00     0.011 C 
ATOM     11  Cl  UNL     1      -5.667   7.598  -2.853  1.00  0.00    -0.071 Cl
ATOM     12  C   UNL     1      -4.282   8.614  -2.679  1.00  0.00     0.103 C 
ATOM     13  Cl  UNL     1      -4.534  10.322  -2.774  1.00  0.00    -0.071 Cl
ENDBRANCH   6  10
ENDBRANCH   3   5
ENDBRANCH   2   3
ENDBRANCH   1   2
BRANCH   1  14
ATOM     14  C   UNL     1      -3.702   3.292  -0.990  1.00  0.00    -0.007 A 
ATOM     15  C   UNL     1      -4.796   4.105  -1.287  1.00  0.00     0.054 A 
ATOM     16  C   UNL     1      -3.517   2.092  -1.676  1.00  0.00     0.007 A 
ATOM     17  C   UNL     1      -5.706   3.715  -2.270  1.00  0.00     0.127 A 
ATOM     18  C   UNL     1      -4.427   1.703  -2.658  1.00  0.00     0.004 A 
ATOM     19  C   UNL     1      -5.521   2.515  -2.956  1.00  0.00     0.047 A 
BRANCH  17  20
ATOM     20  O   UNL     1      -6.774   4.508  -2.561  1.00  0.00    -0.457 OA
BRANCH  20  21
ATOM     21  C   UNL     1      -7.805   4.562  -1.639  1.00  0.00     0.127 A 
ATOM     22  C   UNL     1      -8.494   3.402  -1.329  1.00  0.00     0.047 A 
ATOM     23  C   UNL     1      -8.121   5.773  -1.051  1.00  0.00     0.047 A 
ATOM     24  C   UNL     1      -9.532   3.457  -0.400  1.00  0.00     0.004 A 
ATOM     25  C   UNL     1      -9.160   5.827  -0.121  1.00  0.00     0.004 A 
ATOM     26  C   UNL     1      -9.865   4.668   0.204  1.00  0.00     0.000 A 
ENDBRANCH  20  21
ENDBRANCH  17  20
ENDBRANCH   1  14
TORSDOF 7
ENDMDL
MODEL 3
REMARK VINA RESULT:    -6.264      2.730      5.245
REMARK INTER + INTRA:         -12.028
REMARK INTER:                  -8.971
REMARK INTRA:                  -3.057
REMARK UNBOUND:                -3.201
REMARK SMILES CC1(C)[C@H](C=C(Cl)Cl)[C@H]1C(=O)OCc1cccc(Oc2ccccc2)c1
REMARK SMILES IDX 13 1 12 2 10 3 11 4 9 5 4 6 2 7 1 8 3 9 5 10 7 11 6 12 8 13
REMARK SMILES IDX 14 14 26 15 15 16 18 17 16 18 17 19 19 20 20 21 21 22 25 23
REMARK SMILES IDX 22 24 24 25 23 26
REMARK H PARENT
REMARK Flexibility Score: inf
ROOT
ATOM      1  C   UNL     1      -0.306   1.067  -0.881  1.00  0.00     0.268 C 
ENDROOT
BRANCH   1   2
ATOM      2  O   UNL     1      -0.334   2.489  -0.878  1.00  0.00    -0.461 OA
BRANCH   2   3
ATOM      3  C   UNL     1       0.739   3.105  -1.456  1.00  0.00     0.310 C 
ATOM      4  O   UNL     1       1.902   2.729  -1.417  1.00  0.00    -0.252 OA
BRANCH   3   5
ATOM      5  C   UNL     1       0.344   4.341  -2.177  1.00  0.00     0.113 C 
ATOM      6  C   UNL     1      -1.096   4.523  -2.537  1.00  0.00     0.035 C 
ATOM      7  C   UNL     1      -0.078   4.270  -3.610  1.00  0.00    -0.014 C 
ATOM      8  C   UNL     1       0.246   5.400  -4.528  1.00  0.00     0.012 C 
ATOM      9  C   UNL     1      -0.015   2.935  -4.272  1.00  0.00     0.012 C 
BRANCH   6  10
ATOM     10  C   UNL     1      -1.685   5.845  -2.376  1.00  0.00     0.011 C 
ATOM     11  Cl  UNL     1      -2.582   5.390   0.124  1.00  0.00    -0.071 Cl
ATOM     12  C   UNL     1      -2.335   6.327  -1.306  1.00  0.00     0.103 C 
ATOM     13  Cl  UNL     1      -2.967   7.937  -1.318  1.00  0.00    -0.071 Cl
ENDBRANCH   6  10
ENDBRANCH   3   5
ENDBRANCH   2   3
ENDBRANCH   1   2
BRANCH   1  14
ATOM     14  C   UNL     1      -1.325   0.553  -1.841  1.00  0.00    -0.007 A 
ATOM     15  C   UNL     1      -2.580   1.158  -1.917  1.00  0.00     0.054 A 
ATOM     16  C   UNL     1      -1.023  -0.533  -2.663  1.00  0.00     0.007 A 
ATOM     17  C   UNL     1      -3.532   0.676  -2.815  1.00  0.00     0.127 A 
ATOM     18  C   UNL     1      -1.975  -1.014  -3.561  1.00  0.00     0.004 A 
ATOM     19  C   UNL     1      -3.230  -0.409  -3.637  1.00  0.00     0.047 A 
BRANCH  17  20
ATOM     20  O   UNL     1      -4.756   1.267  -2.890  1.00  0.00    -0.457 OA
BRANCH  20  21
ATOM     21  C   UNL     1      -4.805   2.613  -3.208  1.00  0.00     0.127 A 
ATOM     22  C   UNL     1      -5.502   3.476  -2.381  1.00  0.00     0.047 A 
ATOM     23  C   UNL     1      -4.155   3.061  -4.343  1.00  0.00     0.047 A 
ATOM     24  C   UNL     1      -5.551   4.832  -2.701  1.00  0.00     0.004 A 
ATOM     25  C   UNL     1      -4.204   4.419  -4.663  1.00  0.00     0.004 A 
ATOM     26  C   UNL     1      -4.902   5.304  -3.841  1.00  0.00     0.000 A 
ENDBRANCH  20  21
ENDBRANCH  17  20
ENDBRANCH   1  14
TORSDOF 7
ENDMDL
MODEL 4
REMARK VINA RESULT:    -6.182      2.372      4.691
REMARK INTER + INTRA:         -11.913
REMARK INTER:                  -9.863
REMARK INTRA:                  -2.049
REMARK UNBOUND:                -3.201
REMARK SMILES CC1(C)[C@H](C=C(Cl)Cl)[C@H]1C(=O)OCc1cccc(Oc2ccccc2)c1
REMARK SMILES IDX 13 1 12 2 10 3 11 4 9 5 4 6 2 7 1 8 3 9 5 10 7 11 6 12 8 13
REMARK SMILES IDX 14 14 26 15 15 16 18 17 16 18 17 19 19 20 20 21 21 22 25 23
REMARK SMILES IDX 22 24 24 25 23 26
REMARK H PARENT
REMARK Flexibility Score: inf
ROOT
ATOM      1  C   UNL     1      -4.765   1.705  -3.772  1.00  0.00     0.268 C 
ENDROOT
BRANCH   1   2
ATOM      2  O   UNL     1      -3.347   1.785  -3.848  1.00  0.00    -0.461 OA
BRANCH   2   3
ATOM      3  C   UNL     1      -2.663   1.170  -2.841  1.00  0.00     0.310 C 
ATOM      4  O   UNL     1      -2.841   0.032  -2.427  1.00  0.00    -0.252 OA
BRANCH   3   5
ATOM      5  C   UNL     1      -1.622   2.054  -2.259  1.00  0.00     0.113 C 
ATOM      6  C   UNL     1      -0.994   1.653  -0.962  1.00  0.00     0.035 C 
ATOM      7  C   UNL     1      -1.913   2.838  -1.019  1.00  0.00    -0.014 C 
ATOM      8  C   UNL     1      -1.303   4.188  -0.843  1.00  0.00     0.012 C 
ATOM      9  C   UNL     1      -3.291   2.736  -0.457  1.00  0.00     0.012 C 
BRANCH   6  10
ATOM     10  C   UNL     1       0.441   1.839  -0.804  1.00  0.00     0.011 C 
ATOM     11  Cl  UNL     1       0.759  -0.259   0.856  1.00  0.00    -0.071 Cl
ATOM     12  C   UNL     1       1.286   1.102  -0.067  1.00  0.00     0.103 C 
ATOM     13  Cl  UNL     1       2.969   1.495  -0.011  1.00  0.00    -0.071 Cl
ENDBRANCH   6  10
ENDBRANCH   3   5
ENDBRANCH   2   3
ENDBRANCH   1   2
BRANCH   1  14
ATOM     14  C   UNL     1      -5.313   3.022  -3.335  1.00  0.00    -0.007 A 
ATOM     15  C   UNL     1      -4.753   4.205  -3.816  1.00  0.00     0.054 A 
ATOM     16  C   UNL     1      -6.387   3.069  -2.446  1.00  0.00     0.007 A 
ATOM     17  C   UNL     1      -5.266   5.435  -3.407  1.00  0.00     0.127 A 
ATOM     18  C   UNL     1      -6.899   4.300  -2.037  1.00  0.00     0.004 A 
ATOM     19  C   UNL     1      -6.339   5.483  -2.518  1.00  0.00     0.047 A 
BRANCH  17  20
ATOM     20  O   UNL     1      -4.719   6.591  -3.877  1.00  0.00    -0.457 OA
BRANCH  20  21
ATOM     21  C   UNL     1      -3.499   6.984  -3.355  1.00  0.00     0.127 A 
ATOM     22  C   UNL     1      -2.351   6.783  -4.102  1.00  0.00     0.047 A 
ATOM     23  C   UNL     1      -3.457   7.568  -2.103  1.00  0.00     0.047 A 
ATOM     24  C   UNL     1      -1.122   7.179  -3.577  1.00  0.00     0.004 A 
ATOM     25  C   UNL     1      -2.226   7.965  -1.578  1.00  0.00     0.004 A 
ATOM     26  C   UNL     1      -1.059   7.771  -2.316  1.00  0.00     0.000 A 
ENDBRANCH  20  21
ENDBRANCH  17  20
ENDBRANCH   1  14
TORSDOF 7
ENDMDL
MODEL 5
REMARK VINA RESULT:    -6.107      2.259      4.700
REMARK INTER + INTRA:         -11.807
REMARK INTER:                  -8.898
REMARK INTRA:                  -2.908
REMARK UNBOUND:                -3.201
REMARK SMILES CC1(C)[C@H](C=C(Cl)Cl)[C@H]1C(=O)OCc1cccc(Oc2ccccc2)c1
REMARK SMILES IDX 13 1 12 2 10 3 11 4 9 5 4 6 2 7 1 8 3 9 5 10 7 11 6 12 8 13
REMARK SMILES IDX 14 14 26 15 15 16 18 17 16 18 17 19 19 20 20 21 21 22 25 23
REMARK SMILES IDX 22 24 24 25 23 26
REMARK H PARENT
REMARK Flexibility Score: inf
ROOT
ATOM      1  C   UNL     1      -5.429   4.192  -2.421  1.00  0.00     0.268 C 
ENDROOT
BRANCH   1   2
ATOM      2  O   UNL     1      -4.518   3.227  -1.908  1.00  0.00    -0.461 OA
BRANCH   2   3
ATOM      3  C   UNL     1      -4.440   2.056  -2.603  1.00  0.00     0.310 C 
ATOM      4  O   UNL     1      -5.359   1.484  -3.174  1.00  0.00    -0.252 OA
BRANCH   3   5
ATOM      5  C   UNL     1      -3.062   1.505  -2.605  1.00  0.00     0.113 C 
ATOM      6  C   UNL     1      -1.941   2.397  -2.174  1.00  0.00     0.035 C 
ATOM      7  C   UNL     1      -2.065   1.985  -3.612  1.00  0.00    -0.014 C 
ATOM      8  C   UNL     1      -1.044   1.037  -4.145  1.00  0.00     0.012 C 
ATOM      9  C   UNL     1      -2.543   2.968  -4.627  1.00  0.00     0.012 C 
BRANCH   6  10
ATOM     10  C   UNL     1      -0.895   1.833  -1.333  1.00  0.00     0.011 C 
ATOM     11  Cl  UNL     1      -2.118   2.445   0.988  1.00  0.00    -0.071 Cl
ATOM     12  C   UNL     1      -0.855   1.792   0.007  1.00  0.00     0.103 C 
ATOM     13  Cl  UNL     1       0.491   1.073   0.821  1.00  0.00    -0.071 Cl
ENDBRANCH   6  10
ENDBRANCH   3   5
ENDBRANCH   2   3
ENDBRANCH   1   2
BRANCH   1  14
ATOM     14  C   UNL     1      -4.771   5.530  -2.449  1.00  0.00    -0.007 A 
ATOM     15  C   UNL     1      -3.426   5.653  -2.099  1.00  0.00     0.054 A 
ATOM     16  C   UNL     1      -5.500   6.658  -2.826  1.00  0.00     0.007 A 
ATOM     17  C   UNL     1      -2.811   6.905  -2.126  1.00  0.00     0.127 A 
ATOM     18  C   UNL     1      -4.885   7.909  -2.852  1.00  0.00     0.004 A 
ATOM     19  C   UNL     1      -3.540   8.032  -2.503  1.00  0.00     0.047 A 
BRANCH  17  20
ATOM     20  O   UNL     1      -1.499   7.025  -1.785  1.00  0.00    -0.457 OA
BRANCH  20  21
ATOM     21  C   UNL     1      -0.593   6.176  -2.397  1.00  0.00     0.127 A 
ATOM     22  C   UNL     1       0.227   5.385  -1.610  1.00  0.00     0.047 A 
ATOM     23  C   UNL     1      -0.529   6.139  -3.777  1.00  0.00     0.047 A 
ATOM     24  C   UNL     1       1.139   4.530  -2.226  1.00  0.00     0.004 A 
ATOM     25  C   UNL     1       0.384   5.282  -4.393  1.00  0.00     0.004 A 
ATOM     26  C   UNL     1       1.217   4.477  -3.617  1.00  0.00     0.000 A 
ENDBRANCH  20  21
ENDBRANCH  17  20
ENDBRANCH   1  14
TORSDOF 7
ENDMDL
