MODEL 1
REMARK VINA RESULT:    -6.480      0.000      0.000
REMARK INTER + INTRA:         -12.336
REMARK INTER:                  -9.131
REMARK INTRA:                  -3.205
REMARK UNBOUND:                -3.205
REMARK SMILES CC1(C)[C@H](C=C(Cl)Cl)[C@H]1C(=O)OCc1cccc(Oc2ccccc2)c1
REMARK SMILES IDX 13 1 12 2 10 3 11 4 9 5 4 6 2 7 1 8 3 9 5 10 7 11 6 12 8 13
REMARK SMILES IDX 14 14 26 15 15 16 18 17 16 18 17 19 19 20 20 21 21 22 25 23
REMARK SMILES IDX 22 24 24 25 23 26
REMARK H PARENT
REMARK Flexibility Score: inf
ROOT
ATOM      1  C   UNL     1      -0.394   6.885  -3.252  1.00  0.00     0.268 C 
ENDROOT
BRANCH   1   2
ATOM      2  O   UNL     1      -0.208   5.500  -2.991  1.00  0.00    -0.461 OA
BRANCH   2   3
ATOM      3  C   UNL     1       0.084   5.173  -1.698  1.00  0.00     0.310 C 
ATOM      4  O   UNL     1       0.750   5.833  -0.912  1.00  0.00    -0.252 OA
BRANCH   3   5
ATOM      5  C   UNL     1      -0.513   3.871  -1.309  1.00  0.00     0.113 C 
ATOM      6  C   UNL     1      -1.714   3.389  -2.058  1.00  0.00     0.035 C 
ATOM      7  C   UNL     1      -1.845   3.831  -0.630  1.00  0.00    -0.014 C 
ATOM      8  C   UNL     1      -2.118   2.779   0.392  1.00  0.00     0.012 C 
ATOM      9  C   UNL     1      -2.487   5.140  -0.315  1.00  0.00     0.012 C 
BRANCH   6  10
ATOM     10  C   UNL     1      -1.790   1.976  -2.403  1.00  0.00     0.011 C 
ATOM     11  Cl  UNL     1      -0.127   2.169  -4.513  1.00  0.00    -0.071 Cl
ATOM     12  C   UNL     1      -1.170   1.345  -3.411  1.00  0.00     0.103 C 
ATOM     13  Cl  UNL     1      -1.398  -0.352  -3.652  1.00  0.00    -0.071 Cl
ENDBRANCH   6  10
ENDBRANCH   3   5
ENDBRANCH   2   3
ENDBRANCH   1   2
BRANCH   1  14
ATOM     14  C   UNL     1      -1.835   7.233  -3.089  1.00  0.00    -0.007 A 
ATOM     15  C   UNL     1      -2.815   6.439  -3.685  1.00  0.00     0.054 A 
ATOM     16  C   UNL     1      -2.203   8.350  -2.338  1.00  0.00     0.007 A 
ATOM     17  C   UNL     1      -4.163   6.764  -3.531  1.00  0.00     0.127 A 
ATOM     18  C   UNL     1      -3.550   8.674  -2.186  1.00  0.00     0.004 A 
ATOM     19  C   UNL     1      -4.530   7.881  -2.782  1.00  0.00     0.047 A 
BRANCH  17  20
ATOM     20  O   UNL     1      -5.120   5.990  -4.113  1.00  0.00    -0.457 OA
BRANCH  20  21
ATOM     21  C   UNL     1      -5.194   4.661  -3.732  1.00  0.00     0.127 A 
ATOM     22  C   UNL     1      -5.538   4.353  -2.427  1.00  0.00     0.047 A 
ATOM     23  C   UNL     1      -4.921   3.676  -4.663  1.00  0.00     0.047 A 
ATOM     24  C   UNL     1      -5.612   3.015  -2.043  1.00  0.00     0.004 A 
ATOM     25  C   UNL     1      -4.996   2.337  -4.278  1.00  0.00     0.004 A 
ATOM     26  C   UNL     1      -5.342   2.007  -2.968  1.00  0.00     0.000 A 
ENDBRANCH  20  21
ENDBRANCH  17  20
ENDBRANCH   1  14
TORSDOF 7
ENDMDL
MODEL 2
REMARK VINA RESULT:    -6.308      3.326      5.369
REMARK INTER + INTRA:         -12.094
REMARK INTER:                 -10.083
REMARK INTRA:                  -2.011
REMARK UNBOUND:                -3.205
REMARK SMILES CC1(C)[C@H](C=C(Cl)Cl)[C@H]1C(=O)OCc1cccc(Oc2ccccc2)c1
REMARK SMILES IDX 13 1 12 2 10 3 11 4 9 5 4 6 2 7 1 8 3 9 5 10 7 11 6 12 8 13
REMARK SMILES IDX 14 14 26 15 15 16 18 17 16 18 17 19 19 20 20 21 21 22 25 23
REMARK SMILES IDX 22 24 24 25 23 26
REMARK H PARENT
REMARK Flexibility Score: inf
ROOT
ATOM      1  C   UNL     1      -2.574   3.839   0.107  1.00  0.00     0.268 C 
ENDROOT
BRANCH   1   2
ATOM      2  O   UNL     1      -2.203   5.179  -0.193  1.00  0.00    -0.461 OA
BRANCH   2   3
ATOM      3  C   UNL     1      -1.084   5.327  -0.961  1.00  0.00     0.310 C 
ATOM      4  O   UNL     1      -0.054   4.673  -0.882  1.00  0.00    -0.252 OA
BRANCH   3   5
ATOM      5  C   UNL     1      -1.239   6.416  -1.959  1.00  0.00     0.113 C 
ATOM      6  C   UNL     1      -2.613   6.729  -2.459  1.00  0.00     0.035 C 
ATOM      7  C   UNL     1      -1.607   6.090  -3.371  1.00  0.00    -0.014 C 
ATOM      8  C   UNL     1      -1.063   6.922  -4.483  1.00  0.00     0.012 C 
ATOM      9  C   UNL     1      -1.738   4.646  -3.724  1.00  0.00     0.012 C 
BRANCH   6  10
ATOM     10  C   UNL     1      -2.982   8.126  -2.632  1.00  0.00     0.011 C 
ATOM     11  Cl  UNL     1      -5.626   7.640  -2.821  1.00  0.00    -0.071 Cl
ATOM     12  C   UNL     1      -4.214   8.634  -2.794  1.00  0.00     0.103 C 
ATOM     13  Cl  UNL     1      -4.439  10.338  -2.987  1.00  0.00    -0.071 Cl
ENDBRANCH   6  10
ENDBRANCH   3   5
ENDBRANCH   2   3
ENDBRANCH   1   2
BRANCH   1  14
ATOM     14  C   UNL     1      -3.606   3.381  -0.867  1.00  0.00    -0.007 A 
ATOM     15  C   UNL     1      -4.671   4.218  -1.200  1.00  0.00     0.054 A 
ATOM     16  C   UNL     1      -3.506   2.115  -1.445  1.00  0.00     0.007 A 
ATOM     17  C   UNL     1      -5.636   3.789  -2.111  1.00  0.00     0.127 A 
ATOM     18  C   UNL     1      -4.471   1.686  -2.355  1.00  0.00     0.004 A 
ATOM     19  C   UNL     1      -5.536   2.524  -2.689  1.00  0.00     0.047 A 
BRANCH  17  20
ATOM     20  O   UNL     1      -6.675   4.606  -2.437  1.00  0.00    -0.457 OA
BRANCH  20  21
ATOM     21  C   UNL     1      -7.760   4.642  -1.578  1.00  0.00     0.127 A 
ATOM     22  C   UNL     1      -8.480   3.481  -1.354  1.00  0.00     0.047 A 
ATOM     23  C   UNL     1      -8.097   5.835  -0.967  1.00  0.00     0.047 A 
ATOM     24  C   UNL     1      -9.573   3.517  -0.489  1.00  0.00     0.004 A 
ATOM     25  C   UNL     1      -9.191   5.870  -0.101  1.00  0.00     0.004 A 
ATOM     26  C   UNL     1      -9.928   4.710   0.138  1.00  0.00     0.000 A 
ENDBRANCH  20  21
ENDBRANCH  17  20
ENDBRANCH   1  14
TORSDOF 7
ENDMDL
MODEL 3
REMARK VINA RESULT:    -6.196      2.544      5.009
REMARK INTER + INTRA:         -11.936
REMARK INTER:                  -9.762
REMARK INTRA:                  -2.174
REMARK UNBOUND:                -3.205
REMARK SMILES CC1(C)[C@H](C=C(Cl)Cl)[C@H]1C(=O)OCc1cccc(Oc2ccccc2)c1
REMARK SMILES IDX 13 1 12 2 10 3 11 4 9 5 4 6 2 7 1 8 3 9 5 10 7 11 6 12 8 13
REMARK SMILES IDX 14 14 26 15 15 16 18 17 16 18 17 19 19 20 20 21 21 22 25 23
REMARK SMILES IDX 22 24 24 25 23 26
REMARK H PARENT
REMARK Flexibility Score: inf
ROOT
ATOM      1  C   UNL     1       1.271   3.684  -2.162  1.00  0.00     0.268 C 
ENDROOT
BRANCH   1   2
ATOM      2  O   UNL     1       0.357   4.717  -2.507  1.00  0.00    -0.461 OA
BRANCH   2   3
ATOM      3  C   UNL     1       0.180   5.692  -1.569  1.00  0.00     0.310 C 
ATOM      4  O   UNL     1       1.043   6.176  -0.850  1.00  0.00    -0.252 OA
BRANCH   3   5
ATOM      5  C   UNL     1      -1.233   6.140  -1.497  1.00  0.00     0.113 C 
ATOM      6  C   UNL     1      -2.113   5.906  -2.684  1.00  0.00     0.035 C 
ATOM      7  C   UNL     1      -1.695   7.300  -2.320  1.00  0.00    -0.014 C 
ATOM      8  C   UNL     1      -2.744   8.213  -1.780  1.00  0.00     0.012 C 
ATOM      9  C   UNL     1      -0.666   8.004  -3.140  1.00  0.00     0.012 C 
BRANCH   6  10
ATOM     10  C   UNL     1      -3.480   5.462  -2.452  1.00  0.00     0.011 C 
ATOM     11  Cl  UNL     1      -2.770   3.237  -1.109  1.00  0.00    -0.071 Cl
ATOM     12  C   UNL     1      -3.884   4.358  -1.804  1.00  0.00     0.103 C 
ATOM     13  Cl  UNL     1      -5.569   4.009  -1.639  1.00  0.00    -0.071 Cl
ENDBRANCH   6  10
ENDBRANCH   3   5
ENDBRANCH   2   3
ENDBRANCH   1   2
BRANCH   1  14
ATOM     14  C   UNL     1       0.548   2.381  -2.100  1.00  0.00    -0.007 A 
ATOM     15  C   UNL     1      -0.116   1.898  -3.228  1.00  0.00     0.054 A 
ATOM     16  C   UNL     1       0.537   1.645  -0.916  1.00  0.00     0.007 A 
ATOM     17  C   UNL     1      -0.791   0.680  -3.171  1.00  0.00     0.127 A 
ATOM     18  C   UNL     1      -0.139   0.426  -0.858  1.00  0.00     0.004 A 
ATOM     19  C   UNL     1      -0.803  -0.056  -1.986  1.00  0.00     0.047 A 
BRANCH  17  20
ATOM     20  O   UNL     1      -1.440   0.208  -4.271  1.00  0.00    -0.457 OA
BRANCH  20  21
ATOM     21  C   UNL     1      -2.823   0.263  -4.277  1.00  0.00     0.127 A 
ATOM     22  C   UNL     1      -3.543  -0.919  -4.306  1.00  0.00     0.047 A 
ATOM     23  C   UNL     1      -3.449   1.495  -4.253  1.00  0.00     0.047 A 
ATOM     24  C   UNL     1      -4.936  -0.864  -4.312  1.00  0.00     0.004 A 
ATOM     25  C   UNL     1      -4.844   1.549  -4.259  1.00  0.00     0.004 A 
ATOM     26  C   UNL     1      -5.587   0.369  -4.288  1.00  0.00     0.000 A 
ENDBRANCH  20  21
ENDBRANCH  17  20
ENDBRANCH   1  14
TORSDOF 7
ENDMDL
MODEL 4
REMARK VINA RESULT:    -6.123      2.729      5.231
REMARK INTER + INTRA:         -11.834
REMARK INTER:                  -8.771
REMARK INTRA:                  -3.063
REMARK UNBOUND:                -3.205
REMARK SMILES CC1(C)[C@H](C=C(Cl)Cl)[C@H]1C(=O)OCc1cccc(Oc2ccccc2)c1
REMARK SMILES IDX 13 1 12 2 10 3 11 4 9 5 4 6 2 7 1 8 3 9 5 10 7 11 6 12 8 13
REMARK SMILES IDX 14 14 26 15 15 16 18 17 16 18 17 19 19 20 20 21 21 22 25 23
REMARK SMILES IDX 22 24 24 25 23 26
REMARK H PARENT
REMARK Flexibility Score: inf
ROOT
ATOM      1  C   UNL     1      -0.493   1.229  -0.921  1.00  0.00     0.268 C 
ENDROOT
BRANCH   1   2
ATOM      2  O   UNL     1      -0.474   2.650  -0.922  1.00  0.00    -0.461 OA
BRANCH   2   3
ATOM      3  C   UNL     1       0.641   3.229  -1.455  1.00  0.00     0.310 C 
ATOM      4  O   UNL     1       1.785   2.803  -1.389  1.00  0.00    -0.252 OA
BRANCH   3   5
ATOM      5  C   UNL     1       0.322   4.494  -2.164  1.00  0.00     0.113 C 
ATOM      6  C   UNL     1      -1.107   4.777  -2.503  1.00  0.00     0.035 C 
ATOM      7  C   UNL     1      -0.123   4.462  -3.592  1.00  0.00    -0.014 C 
ATOM      8  C   UNL     1       0.266   5.573  -4.508  1.00  0.00     0.012 C 
ATOM      9  C   UNL     1      -0.160   3.130  -4.262  1.00  0.00     0.012 C 
BRANCH   6  10
ATOM     10  C   UNL     1      -1.602   6.135  -2.327  1.00  0.00     0.011 C 
ATOM     11  Cl  UNL     1      -2.808   5.631   0.029  1.00  0.00    -0.071 Cl
ATOM     12  C   UNL     1      -2.327   6.616  -1.306  1.00  0.00     0.103 C 
ATOM     13  Cl  UNL     1      -2.822   8.273  -1.289  1.00  0.00    -0.071 Cl
ENDBRANCH   6  10
ENDBRANCH   3   5
ENDBRANCH   2   3
ENDBRANCH   1   2
BRANCH   1  14
ATOM     14  C   UNL     1      -1.491   0.744  -1.918  1.00  0.00    -0.007 A 
ATOM     15  C   UNL     1      -2.727   1.381  -2.033  1.00  0.00     0.054 A 
ATOM     16  C   UNL     1      -1.187  -0.344  -2.736  1.00  0.00     0.007 A 
ATOM     17  C   UNL     1      -3.659   0.927  -2.966  1.00  0.00     0.127 A 
ATOM     18  C   UNL     1      -2.120  -0.797  -3.668  1.00  0.00     0.004 A 
ATOM     19  C   UNL     1      -3.356  -0.161  -3.783  1.00  0.00     0.047 A 
BRANCH  17  20
ATOM     20  O   UNL     1      -4.866   1.548  -3.078  1.00  0.00    -0.457 OA
BRANCH  20  21
ATOM     21  C   UNL     1      -4.870   2.910  -3.321  1.00  0.00     0.127 A 
ATOM     22  C   UNL     1      -5.556   3.747  -2.457  1.00  0.00     0.047 A 
ATOM     23  C   UNL     1      -4.189   3.402  -4.419  1.00  0.00     0.047 A 
ATOM     24  C   UNL     1      -5.560   5.119  -2.702  1.00  0.00     0.004 A 
ATOM     25  C   UNL     1      -4.193   4.776  -4.663  1.00  0.00     0.004 A 
ATOM     26  C   UNL     1      -4.878   5.634  -3.804  1.00  0.00     0.000 A 
ENDBRANCH  20  21
ENDBRANCH  17  20
ENDBRANCH   1  14
TORSDOF 7
ENDMDL
MODEL 5
REMARK VINA RESULT:    -6.065      2.968      5.420
REMARK INTER + INTRA:         -11.752
REMARK INTER:                 -10.083
REMARK INTRA:                  -1.670
REMARK UNBOUND:                -3.205
REMARK SMILES CC1(C)[C@H](C=C(Cl)Cl)[C@H]1C(=O)OCc1cccc(Oc2ccccc2)c1
REMARK SMILES IDX 13 1 12 2 10 3 11 4 9 5 4 6 2 7 1 8 3 9 5 10 7 11 6 12 8 13
REMARK SMILES IDX 14 14 26 15 15 16 18 17 16 18 17 19 19 20 20 21 21 22 25 23
REMARK SMILES IDX 22 24 24 25 23 26
REMARK H PARENT
REMARK Flexibility Score: inf
ROOT
ATOM      1  C   UNL     1       1.282   3.498  -2.004  1.00  0.00     0.268 C 
ENDROOT
BRANCH   1   2
ATOM      2  O   UNL     1       0.469   4.497  -2.607  1.00  0.00    -0.461 OA
BRANCH   2   3
ATOM      3  C   UNL     1      -0.060   5.425  -1.758  1.00  0.00     0.310 C 
ATOM      4  O   UNL     1       0.523   5.996  -0.847  1.00  0.00    -0.252 OA
BRANCH   3   5
ATOM      5  C   UNL     1      -1.489   5.696  -2.057  1.00  0.00     0.113 C 
ATOM      6  C   UNL     1      -2.290   6.466  -1.054  1.00  0.00     0.035 C 
ATOM      7  C   UNL     1      -2.562   5.006  -1.276  1.00  0.00    -0.014 C 
ATOM      8  C   UNL     1      -3.842   4.642  -1.949  1.00  0.00     0.012 C 
ATOM      9  C   UNL     1      -2.126   4.008  -0.257  1.00  0.00     0.012 C 
BRANCH   6  10
ATOM     10  C   UNL     1      -3.222   7.472  -1.542  1.00  0.00     0.011 C 
ATOM     11  Cl  UNL     1      -1.512   8.506  -3.349  1.00  0.00    -0.071 Cl
ATOM     12  C   UNL     1      -3.012   8.386  -2.502  1.00  0.00     0.103 C 
ATOM     13  Cl  UNL     1      -4.260   9.502  -2.935  1.00  0.00    -0.071 Cl
ENDBRANCH   6  10
ENDBRANCH   3   5
ENDBRANCH   2   3
ENDBRANCH   1   2
BRANCH   1  14
ATOM     14  C   UNL     1       0.553   2.198  -2.006  1.00  0.00    -0.007 A 
ATOM     15  C   UNL     1      -0.115   1.774  -3.155  1.00  0.00     0.054 A 
ATOM     16  C   UNL     1       0.540   1.404  -0.859  1.00  0.00     0.007 A 
ATOM     17  C   UNL     1      -0.797   0.557  -3.156  1.00  0.00     0.127 A 
ATOM     18  C   UNL     1      -0.142   0.188  -0.860  1.00  0.00     0.004 A 
ATOM     19  C   UNL     1      -0.810  -0.236  -2.010  1.00  0.00     0.047 A 
BRANCH  17  20
ATOM     20  O   UNL     1      -1.449   0.144  -4.278  1.00  0.00    -0.457 OA
BRANCH  20  21
ATOM     21  C   UNL     1      -2.832   0.204  -4.278  1.00  0.00     0.127 A 
ATOM     22  C   UNL     1      -3.557  -0.969  -4.395  1.00  0.00     0.047 A 
ATOM     23  C   UNL     1      -3.453   1.433  -4.162  1.00  0.00     0.047 A 
ATOM     24  C   UNL     1      -4.950  -0.909  -4.395  1.00  0.00     0.004 A 
ATOM     25  C   UNL     1      -4.848   1.493  -4.162  1.00  0.00     0.004 A 
ATOM     26  C   UNL     1      -5.595   0.322  -4.278  1.00  0.00     0.000 A 
ENDBRANCH  20  21
ENDBRANCH  17  20
ENDBRANCH   1  14
TORSDOF 7
ENDMDL
