MODEL 1
REMARK VINA RESULT:    -6.607      0.000      0.000
REMARK INTER + INTRA:         -12.521
REMARK INTER:                  -9.311
REMARK INTRA:                  -3.210
REMARK UNBOUND:                -3.210
REMARK SMILES CC1(C)[C@H](C=C(Cl)Cl)[C@H]1C(=O)OCc1cccc(Oc2ccccc2)c1
REMARK SMILES IDX 13 1 12 2 10 3 11 4 9 5 4 6 2 7 1 8 3 9 5 10 7 11 6 12 8 13
REMARK SMILES IDX 14 14 26 15 15 16 18 17 16 18 17 19 19 20 20 21 21 22 25 23
REMARK SMILES IDX 22 24 24 25 23 26
REMARK H PARENT
REMARK Flexibility Score: inf
ROOT
ATOM      1  C   UNL     1      -0.360   6.636  -3.329  1.00  0.00     0.268 C 
ENDROOT
BRANCH   1   2
ATOM      2  O   UNL     1      -0.186   5.270  -2.972  1.00  0.00    -0.461 OA
BRANCH   2   3
ATOM      3  C   UNL     1       0.058   5.028  -1.651  1.00  0.00     0.310 C 
ATOM      4  O   UNL     1       0.670   5.752  -0.879  1.00  0.00    -0.252 OA
BRANCH   3   5
ATOM      5  C   UNL     1      -0.522   3.735  -1.210  1.00  0.00     0.113 C 
ATOM      6  C   UNL     1      -1.675   3.174  -1.981  1.00  0.00     0.035 C 
ATOM      7  C   UNL     1      -1.883   3.697  -0.589  1.00  0.00    -0.014 C 
ATOM      8  C   UNL     1      -2.175   2.700   0.481  1.00  0.00     0.012 C 
ATOM      9  C   UNL     1      -2.573   5.003  -0.383  1.00  0.00     0.012 C 
BRANCH   6  10
ATOM     10  C   UNL     1      -1.699   1.742  -2.242  1.00  0.00     0.011 C 
ATOM     11  Cl  UNL     1      -0.181   1.893  -4.463  1.00  0.00    -0.071 Cl
ATOM     12  C   UNL     1      -1.109   1.085  -3.252  1.00  0.00     0.103 C 
ATOM     13  Cl  UNL     1      -1.263  -0.633  -3.385  1.00  0.00    -0.071 Cl
ENDBRANCH   6  10
ENDBRANCH   3   5
ENDBRANCH   2   3
ENDBRANCH   1   2
BRANCH   1  14
ATOM     14  C   UNL     1      -1.799   7.004  -3.197  1.00  0.00    -0.007 A 
ATOM     15  C   UNL     1      -2.782   6.188  -3.757  1.00  0.00     0.054 A 
ATOM     16  C   UNL     1      -2.162   8.163  -2.511  1.00  0.00     0.007 A 
ATOM     17  C   UNL     1      -4.128   6.532  -3.632  1.00  0.00     0.127 A 
ATOM     18  C   UNL     1      -3.508   8.508  -2.387  1.00  0.00     0.004 A 
ATOM     19  C   UNL     1      -4.491   7.691  -2.948  1.00  0.00     0.047 A 
BRANCH  17  20
ATOM     20  O   UNL     1      -5.088   5.736  -4.179  1.00  0.00    -0.457 OA
BRANCH  20  21
ATOM     21  C   UNL     1      -5.144   4.417  -3.764  1.00  0.00     0.127 A 
ATOM     22  C   UNL     1      -5.513   4.137  -2.459  1.00  0.00     0.047 A 
ATOM     23  C   UNL     1      -4.832   3.413  -4.661  1.00  0.00     0.047 A 
ATOM     24  C   UNL     1      -5.570   2.809  -2.040  1.00  0.00     0.004 A 
ATOM     25  C   UNL     1      -4.890   2.084  -4.241  1.00  0.00     0.004 A 
ATOM     26  C   UNL     1      -5.259   1.782  -2.931  1.00  0.00     0.000 A 
ENDBRANCH  20  21
ENDBRANCH  17  20
ENDBRANCH   1  14
TORSDOF 7
ENDMDL
MODEL 2
REMARK VINA RESULT:    -6.443      3.363      5.410
REMARK INTER + INTRA:         -12.289
REMARK INTER:                 -10.156
REMARK INTRA:                  -2.133
REMARK UNBOUND:                -3.210
REMARK SMILES CC1(C)[C@H](C=C(Cl)Cl)[C@H]1C(=O)OCc1cccc(Oc2ccccc2)c1
REMARK SMILES IDX 13 1 12 2 10 3 11 4 9 5 4 6 2 7 1 8 3 9 5 10 7 11 6 12 8 13
REMARK SMILES IDX 14 14 26 15 15 16 18 17 16 18 17 19 19 20 20 21 21 22 25 23
REMARK SMILES IDX 22 24 24 25 23 26
REMARK H PARENT
REMARK Flexibility Score: inf
ROOT
ATOM      1  C   UNL     1      -2.783   3.653   0.124  1.00  0.00     0.268 C 
ENDROOT
BRANCH   1   2
ATOM      2  O   UNL     1      -2.340   4.984  -0.112  1.00  0.00    -0.461 OA
BRANCH   2   3
ATOM      3  C   UNL     1      -1.209   5.109  -0.865  1.00  0.00     0.310 C 
ATOM      4  O   UNL     1      -0.216   4.397  -0.812  1.00  0.00    -0.252 OA
BRANCH   3   5
ATOM      5  C   UNL     1      -1.297   6.251  -1.810  1.00  0.00     0.113 C 
ATOM      6  C   UNL     1      -2.632   6.582  -2.399  1.00  0.00     0.035 C 
ATOM      7  C   UNL     1      -1.551   6.002  -3.263  1.00  0.00    -0.014 C 
ATOM      8  C   UNL     1      -0.931   6.900  -4.281  1.00  0.00     0.012 C 
ATOM      9  C   UNL     1      -1.638   4.580  -3.705  1.00  0.00     0.012 C 
BRANCH   6  10
ATOM     10  C   UNL     1      -3.001   7.985  -2.522  1.00  0.00     0.011 C 
ATOM     11  Cl  UNL     1      -5.623   7.495  -2.904  1.00  0.00    -0.071 Cl
ATOM     12  C   UNL     1      -4.224   8.494  -2.735  1.00  0.00     0.103 C 
ATOM     13  Cl  UNL     1      -4.452  10.204  -2.854  1.00  0.00    -0.071 Cl
ENDBRANCH   6  10
ENDBRANCH   3   5
ENDBRANCH   2   3
ENDBRANCH   1   2
BRANCH   1  14
ATOM     14  C   UNL     1      -3.738   3.251  -0.948  1.00  0.00    -0.007 A 
ATOM     15  C   UNL     1      -4.831   4.065  -1.250  1.00  0.00     0.054 A 
ATOM     16  C   UNL     1      -3.539   2.063  -1.650  1.00  0.00     0.007 A 
ATOM     17  C   UNL     1      -5.724   3.688  -2.253  1.00  0.00     0.127 A 
ATOM     18  C   UNL     1      -4.432   1.686  -2.653  1.00  0.00     0.004 A 
ATOM     19  C   UNL     1      -5.524   2.500  -2.954  1.00  0.00     0.047 A 
BRANCH  17  20
ATOM     20  O   UNL     1      -6.790   4.482  -2.548  1.00  0.00    -0.457 OA
BRANCH  20  21
ATOM     21  C   UNL     1      -7.815   4.554  -1.620  1.00  0.00     0.127 A 
ATOM     22  C   UNL     1      -8.497   3.399  -1.279  1.00  0.00     0.047 A 
ATOM     23  C   UNL     1      -8.131   5.777  -1.059  1.00  0.00     0.047 A 
ATOM     24  C   UNL     1      -9.529   3.472  -0.344  1.00  0.00     0.004 A 
ATOM     25  C   UNL     1      -9.164   5.849  -0.123  1.00  0.00     0.004 A 
ATOM     26  C   UNL     1      -9.863   4.696   0.234  1.00  0.00     0.000 A 
ENDBRANCH  20  21
ENDBRANCH  17  20
ENDBRANCH   1  14
TORSDOF 7
ENDMDL
MODEL 3
REMARK VINA RESULT:    -6.332      2.817      5.967
REMARK INTER + INTRA:         -12.132
REMARK INTER:                  -9.217
REMARK INTRA:                  -2.915
REMARK UNBOUND:                -3.210
REMARK SMILES CC1(C)[C@H](C=C(Cl)Cl)[C@H]1C(=O)OCc1cccc(Oc2ccccc2)c1
REMARK SMILES IDX 13 1 12 2 10 3 11 4 9 5 4 6 2 7 1 8 3 9 5 10 7 11 6 12 8 13
REMARK SMILES IDX 14 14 26 15 15 16 18 17 16 18 17 19 19 20 20 21 21 22 25 23
REMARK SMILES IDX 22 24 24 25 23 26
REMARK H PARENT
REMARK Flexibility Score: inf
ROOT
ATOM      1  C   UNL     1      -5.128   2.844  -4.624  1.00  0.00     0.268 C 
ENDROOT
BRANCH   1   2
ATOM      2  O   UNL     1      -4.408   3.874  -3.958  1.00  0.00    -0.461 OA
BRANCH   2   3
ATOM      3  C   UNL     1      -4.907   4.261  -2.749  1.00  0.00     0.310 C 
ATOM      4  O   UNL     1      -6.063   4.144  -2.366  1.00  0.00    -0.252 OA
BRANCH   3   5
ATOM      5  C   UNL     1      -3.862   4.871  -1.889  1.00  0.00     0.113 C 
ATOM      6  C   UNL     1      -2.429   4.571  -2.194  1.00  0.00     0.035 C 
ATOM      7  C   UNL     1      -3.067   4.014  -0.955  1.00  0.00    -0.014 C 
ATOM      8  C   UNL     1      -2.623   4.572   0.356  1.00  0.00     0.012 C 
ATOM      9  C   UNL     1      -3.423   2.567  -0.890  1.00  0.00     0.012 C 
BRANCH   6  10
ATOM     10  C   UNL     1      -1.462   5.656  -2.101  1.00  0.00     0.011 C 
ATOM     11  Cl  UNL     1      -2.152   6.772  -4.455  1.00  0.00    -0.071 Cl
ATOM     12  C   UNL     1      -1.251   6.641  -2.987  1.00  0.00     0.103 C 
ATOM     13  Cl  UNL     1      -0.043   7.842  -2.688  1.00  0.00    -0.071 Cl
ENDBRANCH   6  10
ENDBRANCH   3   5
ENDBRANCH   2   3
ENDBRANCH   1   2
BRANCH   1  14
ATOM     14  C   UNL     1      -4.406   1.550  -4.465  1.00  0.00    -0.007 A 
ATOM     15  C   UNL     1      -3.023   1.541  -4.279  1.00  0.00     0.054 A 
ATOM     16  C   UNL     1      -5.112   0.348  -4.501  1.00  0.00     0.007 A 
ATOM     17  C   UNL     1      -2.348   0.330  -4.130  1.00  0.00     0.127 A 
ATOM     18  C   UNL     1      -4.437  -0.863  -4.352  1.00  0.00     0.004 A 
ATOM     19  C   UNL     1      -3.054  -0.871  -4.166  1.00  0.00     0.047 A 
BRANCH  17  20
ATOM     20  O   UNL     1      -0.999   0.321  -3.949  1.00  0.00    -0.457 OA
BRANCH  20  21
ATOM     21  C   UNL     1      -0.508   0.788  -2.741  1.00  0.00     0.127 A 
ATOM     22  C   UNL     1      -0.613  -0.012  -1.617  1.00  0.00     0.047 A 
ATOM     23  C   UNL     1       0.075   2.041  -2.689  1.00  0.00     0.047 A 
ATOM     24  C   UNL     1      -0.119   0.458  -0.401  1.00  0.00     0.004 A 
ATOM     25  C   UNL     1       0.570   2.510  -1.472  1.00  0.00     0.004 A 
ATOM     26  C   UNL     1       0.473   1.718  -0.328  1.00  0.00     0.000 A 
ENDBRANCH  20  21
ENDBRANCH  17  20
ENDBRANCH   1  14
TORSDOF 7
ENDMDL
MODEL 4
REMARK VINA RESULT:    -6.330      2.530      5.020
REMARK INTER + INTRA:         -12.130
REMARK INTER:                 -10.111
REMARK INTRA:                  -2.019
REMARK UNBOUND:                -3.210
REMARK SMILES CC1(C)[C@H](C=C(Cl)Cl)[C@H]1C(=O)OCc1cccc(Oc2ccccc2)c1
REMARK SMILES IDX 13 1 12 2 10 3 11 4 9 5 4 6 2 7 1 8 3 9 5 10 7 11 6 12 8 13
REMARK SMILES IDX 14 14 26 15 15 16 18 17 16 18 17 19 19 20 20 21 21 22 25 23
REMARK SMILES IDX 22 24 24 25 23 26
REMARK H PARENT
REMARK Flexibility Score: inf
ROOT
ATOM      1  C   UNL     1       1.043   3.457  -1.796  1.00  0.00     0.268 C 
ENDROOT
BRANCH   1   2
ATOM      2  O   UNL     1       0.145   4.457  -2.260  1.00  0.00    -0.461 OA
BRANCH   2   3
ATOM      3  C   UNL     1       0.012   5.554  -1.459  1.00  0.00     0.310 C 
ATOM      4  O   UNL     1       0.900   6.104  -0.823  1.00  0.00    -0.252 OA
BRANCH   3   5
ATOM      5  C   UNL     1      -1.388   6.050  -1.428  1.00  0.00     0.113 C 
ATOM      6  C   UNL     1      -2.242   5.839  -2.638  1.00  0.00     0.035 C 
ATOM      7  C   UNL     1      -1.787   7.221  -2.269  1.00  0.00    -0.014 C 
ATOM      8  C   UNL     1      -2.819   8.171  -1.762  1.00  0.00     0.012 C 
ATOM      9  C   UNL     1      -0.713   7.885  -3.063  1.00  0.00     0.012 C 
BRANCH   6  10
ATOM     10  C   UNL     1      -3.629   5.443  -2.442  1.00  0.00     0.011 C 
ATOM     11  Cl  UNL     1      -3.028   3.102  -1.251  1.00  0.00    -0.071 Cl
ATOM     12  C   UNL     1      -4.086   4.317  -1.872  1.00  0.00     0.103 C 
ATOM     13  Cl  UNL     1      -5.787   4.033  -1.738  1.00  0.00    -0.071 Cl
ENDBRANCH   6  10
ENDBRANCH   3   5
ENDBRANCH   2   3
ENDBRANCH   1   2
BRANCH   1  14
ATOM     14  C   UNL     1       0.389   2.120  -1.892  1.00  0.00    -0.007 A 
ATOM     15  C   UNL     1      -0.247   1.738  -3.073  1.00  0.00     0.054 A 
ATOM     16  C   UNL     1       0.415   1.252  -0.800  1.00  0.00     0.007 A 
ATOM     17  C   UNL     1      -0.857   0.487  -3.162  1.00  0.00     0.127 A 
ATOM     18  C   UNL     1      -0.196   0.002  -0.889  1.00  0.00     0.004 A 
ATOM     19  C   UNL     1      -0.832  -0.381  -2.071  1.00  0.00     0.047 A 
BRANCH  17  20
ATOM     20  O   UNL     1      -1.478   0.114  -4.314  1.00  0.00    -0.457 OA
BRANCH  20  21
ATOM     21  C   UNL     1      -2.860   0.187  -4.355  1.00  0.00     0.127 A 
ATOM     22  C   UNL     1      -3.469   1.430  -4.349  1.00  0.00     0.047 A 
ATOM     23  C   UNL     1      -3.596  -0.983  -4.400  1.00  0.00     0.047 A 
ATOM     24  C   UNL     1      -4.861   1.503  -4.389  1.00  0.00     0.004 A 
ATOM     25  C   UNL     1      -4.989  -0.908  -4.441  1.00  0.00     0.004 A 
ATOM     26  C   UNL     1      -5.621   0.335  -4.436  1.00  0.00     0.000 A 
ENDBRANCH  20  21
ENDBRANCH  17  20
ENDBRANCH   1  14
TORSDOF 7
ENDMDL
MODEL 5
REMARK VINA RESULT:    -6.274      2.269      4.574
REMARK INTER + INTRA:         -12.051
REMARK INTER:                  -9.862
REMARK INTRA:                  -2.189
REMARK UNBOUND:                -3.210
REMARK SMILES CC1(C)[C@H](C=C(Cl)Cl)[C@H]1C(=O)OCc1cccc(Oc2ccccc2)c1
REMARK SMILES IDX 13 1 12 2 10 3 11 4 9 5 4 6 2 7 1 8 3 9 5 10 7 11 6 12 8 13
REMARK SMILES IDX 14 14 26 15 15 16 18 17 16 18 17 19 19 20 20 21 21 22 25 23
REMARK SMILES IDX 22 24 24 25 23 26
REMARK H PARENT
REMARK Flexibility Score: inf
ROOT
ATOM      1  C   UNL     1      -4.426   2.011  -4.177  1.00  0.00     0.268 C 
ENDROOT
BRANCH   1   2
ATOM      2  O   UNL     1      -3.045   2.050  -3.838  1.00  0.00    -0.461 OA
BRANCH   2   3
ATOM      3  C   UNL     1      -2.721   1.553  -2.609  1.00  0.00     0.310 C 
ATOM      4  O   UNL     1      -3.240   0.597  -2.050  1.00  0.00    -0.252 OA
BRANCH   3   5
ATOM      5  C   UNL     1      -1.619   2.320  -1.976  1.00  0.00     0.113 C 
ATOM      6  C   UNL     1      -1.314   2.064  -0.534  1.00  0.00     0.035 C 
ATOM      7  C   UNL     1      -1.926   3.368  -0.954  1.00  0.00    -0.014 C 
ATOM      8  C   UNL     1      -1.068   4.586  -0.872  1.00  0.00     0.012 C 
ATOM      9  C   UNL     1      -3.364   3.639  -0.669  1.00  0.00     0.012 C 
BRANCH   6  10
ATOM     10  C   UNL     1       0.082   2.002  -0.125  1.00  0.00     0.011 C 
ATOM     11  Cl  UNL     1       0.238  -0.684  -0.260  1.00  0.00    -0.071 Cl
ATOM     12  C   UNL     1       0.843   0.907   0.027  1.00  0.00     0.103 C 
ATOM     13  Cl  UNL     1       2.492   1.051   0.528  1.00  0.00    -0.071 Cl
ENDBRANCH   6  10
ENDBRANCH   3   5
ENDBRANCH   2   3
ENDBRANCH   1   2
BRANCH   1  14
ATOM     14  C   UNL     1      -5.113   3.203  -3.603  1.00  0.00    -0.007 A 
ATOM     15  C   UNL     1      -4.664   4.486  -3.920  1.00  0.00     0.054 A 
ATOM     16  C   UNL     1      -6.204   3.036  -2.750  1.00  0.00     0.007 A 
ATOM     17  C   UNL     1      -5.308   5.601  -3.383  1.00  0.00     0.127 A 
ATOM     18  C   UNL     1      -6.846   4.151  -2.213  1.00  0.00     0.004 A 
ATOM     19  C   UNL     1      -6.398   5.433  -2.530  1.00  0.00     0.047 A 
BRANCH  17  20
ATOM     20  O   UNL     1      -4.871   6.852  -3.692  1.00  0.00    -0.457 OA
BRANCH  20  21
ATOM     21  C   UNL     1      -3.631   7.239  -3.212  1.00  0.00     0.127 A 
ATOM     22  C   UNL     1      -2.544   7.228  -4.069  1.00  0.00     0.047 A 
ATOM     23  C   UNL     1      -3.509   7.625  -1.890  1.00  0.00     0.047 A 
ATOM     24  C   UNL     1      -1.295   7.617  -3.587  1.00  0.00     0.004 A 
ATOM     25  C   UNL     1      -2.259   8.014  -1.408  1.00  0.00     0.004 A 
ATOM     26  C   UNL     1      -1.152   8.011  -2.257  1.00  0.00     0.000 A 
ENDBRANCH  20  21
ENDBRANCH  17  20
ENDBRANCH   1  14
TORSDOF 7
ENDMDL
