MODEL 1
REMARK VINA RESULT:    -6.175      0.000      0.000
REMARK INTER + INTRA:          -7.663
REMARK INTER:                  -7.258
REMARK INTRA:                  -0.405
REMARK UNBOUND:                -0.405
REMARK SMILES Clc1ccc(C(c2ccc(Cl)cc2)C(Cl)(Cl)Cl)cc1
REMARK SMILES IDX 6 1 14 2 15 3 16 4 17 5 5 6 4 7 18 8 3 9 19 10 2 11 1 12
REMARK SMILES IDX 7 13 8 14 13 15 9 16 12 17 10 18 11 19
REMARK H PARENT
REMARK Flexibility Score: inf
ROOT
ATOM      1  C   UNL     1       0.039   1.348  -1.340  1.00  0.00     0.101 C 
ENDROOT
BRANCH   1   2
ATOM      2  C   UNL     1       0.364   0.783   0.106  1.00  0.00     0.201 C 
ATOM      3  Cl  UNL     1      -0.697   1.420   1.404  1.00  0.00    -0.083 Cl
ATOM      4  Cl  UNL     1       2.059   1.243   0.563  1.00  0.00    -0.083 Cl
ATOM      5  Cl  UNL     1       0.308  -1.020   0.163  1.00  0.00    -0.083 Cl
ENDBRANCH   1   2
BRANCH   1   6
ATOM      6  C   UNL     1       0.128   2.830  -1.488  1.00  0.00    -0.036 A 
ATOM      7  C   UNL     1       1.145   3.393  -2.258  1.00  0.00     0.006 A 
ATOM      8  C   UNL     1      -0.806   3.652  -0.856  1.00  0.00     0.006 A 
ATOM      9  C   UNL     1       1.229   4.779  -2.396  1.00  0.00     0.021 A 
ATOM     10  C   UNL     1      -0.722   5.037  -0.995  1.00  0.00     0.021 A 
ATOM     11  C   UNL     1       0.295   5.601  -1.764  1.00  0.00     0.041 A 
ATOM     12  Cl  UNL     1       0.398   7.311  -1.934  1.00  0.00    -0.084 Cl
ENDBRANCH   1   6
BRANCH   1  13
ATOM     13  C   UNL     1      -1.200   0.748  -2.051  1.00  0.00    -0.036 A 
ATOM     14  C   UNL     1      -0.999  -0.284  -2.925  1.00  0.00     0.006 A 
ATOM     15  C   UNL     1      -2.424   1.285  -1.764  1.00  0.00     0.006 A 
ATOM     16  C   UNL     1      -2.114  -0.823  -3.565  1.00  0.00     0.021 A 
ATOM     17  C   UNL     1      -3.539   0.746  -2.406  1.00  0.00     0.021 A 
ATOM     18  C   UNL     1      -3.384  -0.309  -3.306  1.00  0.00     0.041 A 
ATOM     19  Cl  UNL     1      -4.761  -0.973  -4.097  1.00  0.00    -0.084 Cl
ENDBRANCH   1  13
TORSDOF 3
ENDMDL
MODEL 2
REMARK VINA RESULT:    -6.174      0.006      1.109
REMARK INTER + INTRA:          -7.662
REMARK INTER:                  -7.256
REMARK INTRA:                  -0.405
REMARK UNBOUND:                -0.405
REMARK SMILES Clc1ccc(C(c2ccc(Cl)cc2)C(Cl)(Cl)Cl)cc1
REMARK SMILES IDX 6 1 14 2 15 3 16 4 17 5 5 6 4 7 18 8 3 9 19 10 2 11 1 12
REMARK SMILES IDX 7 13 8 14 13 15 9 16 12 17 10 18 11 19
REMARK H PARENT
REMARK Flexibility Score: inf
ROOT
ATOM      1  C   UNL     1       0.040   1.349  -1.339  1.00  0.00     0.101 C 
ENDROOT
BRANCH   1   2
ATOM      2  C   UNL     1       0.368   0.782   0.105  1.00  0.00     0.201 C 
ATOM      3  Cl  UNL     1      -0.693   1.415   1.405  1.00  0.00    -0.083 Cl
ATOM      4  Cl  UNL     1       2.062   1.243   0.561  1.00  0.00    -0.083 Cl
ATOM      5  Cl  UNL     1       0.314  -1.021   0.159  1.00  0.00    -0.083 Cl
ENDBRANCH   1   2
BRANCH   1   6
ATOM      6  C   UNL     1       0.130   2.830  -1.487  1.00  0.00    -0.036 A 
ATOM      7  C   UNL     1      -0.802   3.651  -0.852  1.00  0.00     0.006 A 
ATOM      8  C   UNL     1       1.144   3.395  -2.261  1.00  0.00     0.006 A 
ATOM      9  C   UNL     1      -0.719   5.037  -0.991  1.00  0.00     0.021 A 
ATOM     10  C   UNL     1       1.227   4.780  -2.399  1.00  0.00     0.021 A 
ATOM     11  C   UNL     1       0.296   5.601  -1.765  1.00  0.00     0.041 A 
ATOM     12  Cl  UNL     1       0.398   7.311  -1.936  1.00  0.00    -0.084 Cl
ENDBRANCH   1   6
BRANCH   1  13
ATOM     13  C   UNL     1      -1.201   0.750  -2.048  1.00  0.00    -0.036 A 
ATOM     14  C   UNL     1      -1.002  -0.282  -2.922  1.00  0.00     0.006 A 
ATOM     15  C   UNL     1      -2.424   1.288  -1.761  1.00  0.00     0.006 A 
ATOM     16  C   UNL     1      -2.119  -0.820  -3.561  1.00  0.00     0.021 A 
ATOM     17  C   UNL     1      -3.541   0.751  -2.400  1.00  0.00     0.021 A 
ATOM     18  C   UNL     1      -3.388  -0.304  -3.300  1.00  0.00     0.041 A 
ATOM     19  Cl  UNL     1      -4.767  -0.967  -4.089  1.00  0.00    -0.084 Cl
ENDBRANCH   1  13
TORSDOF 3
ENDMDL
MODEL 3
REMARK VINA RESULT:    -6.100      2.199      4.656
REMARK INTER + INTRA:          -7.576
REMARK INTER:                  -6.973
REMARK INTRA:                  -0.602
REMARK UNBOUND:                -0.405
REMARK SMILES Clc1ccc(C(c2ccc(Cl)cc2)C(Cl)(Cl)Cl)cc1
REMARK SMILES IDX 6 1 14 2 15 3 16 4 17 5 5 6 4 7 18 8 3 9 19 10 2 11 1 12
REMARK SMILES IDX 7 13 8 14 13 15 9 16 12 17 10 18 11 19
REMARK H PARENT
REMARK Flexibility Score: inf
ROOT
ATOM      1  C   UNL     1      -1.383   1.937  -1.263  1.00  0.00     0.101 C 
ENDROOT
BRANCH   1   2
ATOM      2  C   UNL     1      -1.824   1.031  -2.488  1.00  0.00     0.201 C 
ATOM      3  Cl  UNL     1      -3.597   0.940  -2.738  1.00  0.00    -0.083 Cl
ATOM      4  Cl  UNL     1      -1.261  -0.671  -2.209  1.00  0.00    -0.083 Cl
ATOM      5  Cl  UNL     1      -1.061   1.557  -4.036  1.00  0.00    -0.083 Cl
ENDBRANCH   1   2
BRANCH   1   6
ATOM      6  C   UNL     1      -1.827   3.359  -1.318  1.00  0.00    -0.036 A 
ATOM      7  C   UNL     1      -1.955   4.002  -2.549  1.00  0.00     0.006 A 
ATOM      8  C   UNL     1      -2.114   4.047  -0.139  1.00  0.00     0.006 A 
ATOM      9  C   UNL     1      -2.369   5.333  -2.602  1.00  0.00     0.021 A 
ATOM     10  C   UNL     1      -2.530   5.377  -0.191  1.00  0.00     0.021 A 
ATOM     11  C   UNL     1      -2.657   6.020  -1.422  1.00  0.00     0.041 A 
ATOM     12  Cl  UNL     1      -3.168   7.663  -1.486  1.00  0.00    -0.084 Cl
ENDBRANCH   1   6
BRANCH   1  13
ATOM     13  C   UNL     1       0.085   1.785  -0.789  1.00  0.00    -0.036 A 
ATOM     14  C   UNL     1       0.320   1.059   0.345  1.00  0.00     0.006 A 
ATOM     15  C   UNL     1       1.062   2.388  -1.532  1.00  0.00     0.006 A 
ATOM     16  C   UNL     1       1.641   0.925   0.771  1.00  0.00     0.021 A 
ATOM     17  C   UNL     1       2.383   2.253  -1.105  1.00  0.00     0.021 A 
ATOM     18  C   UNL     1       2.672   1.521   0.047  1.00  0.00     0.041 A 
ATOM     19  Cl  UNL     1       4.303   1.356   0.574  1.00  0.00    -0.084 Cl
ENDBRANCH   1  13
TORSDOF 3
ENDMDL
MODEL 4
REMARK VINA RESULT:    -6.094      2.215      4.757
REMARK INTER + INTRA:          -7.568
REMARK INTER:                  -6.955
REMARK INTRA:                  -0.613
REMARK UNBOUND:                -0.405
REMARK SMILES Clc1ccc(C(c2ccc(Cl)cc2)C(Cl)(Cl)Cl)cc1
REMARK SMILES IDX 6 1 14 2 15 3 16 4 17 5 5 6 4 7 18 8 3 9 19 10 2 11 1 12
REMARK SMILES IDX 7 13 8 14 13 15 9 16 12 17 10 18 11 19
REMARK H PARENT
REMARK Flexibility Score: inf
ROOT
ATOM      1  C   UNL     1      -1.382   1.949  -1.312  1.00  0.00     0.101 C 
ENDROOT
BRANCH   1   2
ATOM      2  C   UNL     1      -1.801   1.064  -2.560  1.00  0.00     0.201 C 
ATOM      3  Cl  UNL     1      -1.157   1.649  -4.129  1.00  0.00    -0.083 Cl
ATOM      4  Cl  UNL     1      -3.608   1.069  -2.719  1.00  0.00    -0.083 Cl
ATOM      5  Cl  UNL     1      -1.325  -0.665  -2.362  1.00  0.00    -0.083 Cl
ENDBRANCH   1   2
BRANCH   1   6
ATOM      6  C   UNL     1      -1.827   3.372  -1.351  1.00  0.00    -0.036 A 
ATOM      7  C   UNL     1      -2.146   4.035  -0.167  1.00  0.00     0.006 A 
ATOM      8  C   UNL     1      -1.927   4.039  -2.573  1.00  0.00     0.006 A 
ATOM      9  C   UNL     1      -2.564   5.366  -0.203  1.00  0.00     0.021 A 
ATOM     10  C   UNL     1      -2.343   5.370  -2.609  1.00  0.00     0.021 A 
ATOM     11  C   UNL     1      -2.662   6.033  -1.424  1.00  0.00     0.041 A 
ATOM     12  Cl  UNL     1      -3.178   7.675  -1.469  1.00  0.00    -0.084 Cl
ENDBRANCH   1   6
BRANCH   1  13
ATOM     13  C   UNL     1       0.078   1.791  -0.816  1.00  0.00    -0.036 A 
ATOM     14  C   UNL     1       1.070   2.381  -1.548  1.00  0.00     0.006 A 
ATOM     15  C   UNL     1       0.290   1.069   0.325  1.00  0.00     0.006 A 
ATOM     16  C   UNL     1       2.383   2.237  -1.102  1.00  0.00     0.021 A 
ATOM     17  C   UNL     1       1.604   0.925   0.771  1.00  0.00     0.021 A 
ATOM     18  C   UNL     1       2.650   1.509   0.058  1.00  0.00     0.041 A 
ATOM     19  Cl  UNL     1       4.271   1.331   0.609  1.00  0.00    -0.084 Cl
ENDBRANCH   1  13
TORSDOF 3
ENDMDL
MODEL 5
REMARK VINA RESULT:    -6.002      3.521      5.507
REMARK INTER + INTRA:          -7.460
REMARK INTER:                  -6.865
REMARK INTRA:                  -0.595
REMARK UNBOUND:                -0.405
REMARK SMILES Clc1ccc(C(c2ccc(Cl)cc2)C(Cl)(Cl)Cl)cc1
REMARK SMILES IDX 6 1 14 2 15 3 16 4 17 5 5 6 4 7 18 8 3 9 19 10 2 11 1 12
REMARK SMILES IDX 7 13 8 14 13 15 9 16 12 17 10 18 11 19
REMARK H PARENT
REMARK Flexibility Score: inf
ROOT
ATOM      1  C   UNL     1      -2.191   4.678  -1.852  1.00  0.00     0.101 C 
ENDROOT
BRANCH   1   2
ATOM      2  C   UNL     1      -3.206   3.462  -1.930  1.00  0.00     0.201 C 
ATOM      3  Cl  UNL     1      -4.853   3.836  -1.326  1.00  0.00    -0.083 Cl
ATOM      4  Cl  UNL     1      -2.588   2.097  -0.907  1.00  0.00    -0.083 Cl
ATOM      5  Cl  UNL     1      -3.353   2.801  -3.602  1.00  0.00    -0.083 Cl
ENDBRANCH   1   2
BRANCH   1   6
ATOM      6  C   UNL     1      -2.782   6.028  -2.076  1.00  0.00    -0.036 A 
ATOM      7  C   UNL     1      -3.813   6.193  -3.001  1.00  0.00     0.006 A 
ATOM      8  C   UNL     1      -2.302   7.127  -1.363  1.00  0.00     0.006 A 
ATOM      9  C   UNL     1      -4.365   7.457  -3.212  1.00  0.00     0.021 A 
ATOM     10  C   UNL     1      -2.855   8.390  -1.573  1.00  0.00     0.021 A 
ATOM     11  C   UNL     1      -3.886   8.555  -2.497  1.00  0.00     0.041 A 
ATOM     12  Cl  UNL     1      -4.567  10.115  -2.758  1.00  0.00    -0.084 Cl
ENDBRANCH   1   6
BRANCH   1  13
ATOM     13  C   UNL     1      -0.835   4.488  -2.577  1.00  0.00    -0.036 A 
ATOM     14  C   UNL     1       0.214   3.991  -1.855  1.00  0.00     0.006 A 
ATOM     15  C   UNL     1      -0.763   4.832  -3.899  1.00  0.00     0.006 A 
ATOM     16  C   UNL     1       1.434   3.822  -2.509  1.00  0.00     0.021 A 
ATOM     17  C   UNL     1       0.458   4.664  -4.552  1.00  0.00     0.021 A 
ATOM     18  C   UNL     1       1.556   4.158  -3.857  1.00  0.00     0.041 A 
ATOM     19  Cl  UNL     1       3.063   3.951  -4.663  1.00  0.00    -0.084 Cl
ENDBRANCH   1  13
TORSDOF 3
ENDMDL
