MODEL 1
REMARK VINA RESULT:    -7.204      0.000      0.000
REMARK INTER + INTRA:         -11.650
REMARK INTER:                 -10.573
REMARK INTRA:                  -1.077
REMARK UNBOUND:                -1.077
REMARK SMILES CC1(C)C(C=C(Br)Br)C1C(=O)OC(C#N)c1cccc(Oc2ccccc2)c1
REMARK SMILES IDX 13 1 12 2 10 3 11 4 9 5 4 6 2 7 1 8 3 9 5 10 7 11 6 12 8 13
REMARK SMILES IDX 16 14 28 15 17 16 20 17 18 18 19 19 21 20 22 21 23 22 27 23
REMARK SMILES IDX 24 24 26 25 25 26 14 27 15 28
REMARK H PARENT
REMARK Flexibility Score: inf
ROOT
ATOM      1  C   UNL     1      -4.046   0.981  -4.075  1.00  0.00     0.309 C
ENDROOT
BRANCH   1   2
ATOM      2  O   UNL     1      -4.627   2.058  -3.329  1.00  0.00    -0.442 OA
BRANCH   2   3
ATOM      3  C   UNL     1      -4.543   3.283  -3.914  1.00  0.00     0.311 C
ATOM      4  O   UNL     1      -3.663   3.683  -4.663  1.00  0.00    -0.252 OA
BRANCH   3   5
ATOM      5  C   UNL     1      -5.693   4.145  -3.534  1.00  0.00     0.113 C
ATOM      6  C   UNL     1      -5.429   5.583  -3.224  1.00  0.00     0.035 C
ATOM      7  C   UNL     1      -5.826   4.637  -2.129  1.00  0.00    -0.014 C
ATOM      8  C   UNL     1      -4.784   4.278  -1.123  1.00  0.00     0.012 C
ATOM      9  C   UNL     1      -7.205   4.700  -1.561  1.00  0.00     0.012 C
BRANCH   6  10
ATOM     10  C   UNL     1      -4.061   6.072  -3.318  1.00  0.00     0.001 C
ATOM     11  Br  UNL     1      -4.752   8.780  -2.799  1.00  0.00    -0.043 Br
ATOM     12  C   UNL     1      -3.623   7.334  -3.172  1.00  0.00     0.057 C
ATOM     13  Br  UNL     1      -1.802   7.751  -3.334  1.00  0.00    -0.043 Br
ENDBRANCH   6  10
ENDBRANCH   3   5
ENDBRANCH   2   3
ENDBRANCH   1   2
BRANCH   1  14
ATOM     14  C   UNL     1      -2.878   0.422  -3.337  1.00  0.00     0.011 A
ATOM     15  C   UNL     1      -2.233   1.191  -2.367  1.00  0.00     0.055 A
ATOM     16  C   UNL     1      -2.431  -0.869  -3.614  1.00  0.00     0.009 A
ATOM     17  C   UNL     1      -1.141   0.668  -1.676  1.00  0.00     0.127 A
ATOM     18  C   UNL     1      -1.338  -1.392  -2.922  1.00  0.00     0.004 A
ATOM     19  C   UNL     1      -0.692  -0.623  -1.954  1.00  0.00     0.047 A
BRANCH  17  20
ATOM     20  O   UNL     1      -0.510   1.417  -0.730  1.00  0.00    -0.457 OA
BRANCH  20  21
ATOM     21  C   UNL     1      -0.204   2.730  -1.049  1.00  0.00     0.127 A
ATOM     22  C   UNL     1      -1.061   3.738  -0.646  1.00  0.00     0.047 A
ATOM     23  C   UNL     1       0.950   3.000  -1.762  1.00  0.00     0.047 A
ATOM     24  C   UNL     1      -0.754   5.061  -0.967  1.00  0.00     0.004 A
ATOM     25  C   UNL     1       1.257   4.321  -2.083  1.00  0.00     0.004 A
ATOM     26  C   UNL     1       0.406   5.352  -1.685  1.00  0.00     0.000 A
ENDBRANCH  20  21
ENDBRANCH  17  20
ENDBRANCH   1  14
BRANCH   1  27
ATOM     27  C   UNL     1      -5.081  -0.035  -4.354  1.00  0.00     0.113 C
ATOM     28  N   UNL     1      -5.887  -0.840  -4.577  1.00  0.00    -0.194 NA
ENDBRANCH   1  27
TORSDOF 8
ENDMDL
MODEL 2
REMARK VINA RESULT:    -7.194      3.028      5.785
REMARK INTER + INTRA:         -11.636
REMARK INTER:                 -10.151
REMARK INTRA:                  -1.485
REMARK UNBOUND:                -1.077
REMARK SMILES CC1(C)C(C=C(Br)Br)C1C(=O)OC(C#N)c1cccc(Oc2ccccc2)c1
REMARK SMILES IDX 13 1 12 2 10 3 11 4 9 5 4 6 2 7 1 8 3 9 5 10 7 11 6 12 8 13
REMARK SMILES IDX 16 14 28 15 17 16 20 17 18 18 19 19 21 20 22 21 23 22 27 23
REMARK SMILES IDX 24 24 26 25 25 26 14 27 15 28
REMARK H PARENT
REMARK Flexibility Score: inf
ROOT
ATOM      1  C   UNL     1      -4.482   1.573  -2.804  1.00  0.00     0.309 C
ENDROOT
BRANCH   1   2
ATOM      2  O   UNL     1      -3.155   1.735  -3.322  1.00  0.00    -0.442 OA
BRANCH   2   3
ATOM      3  C   UNL     1      -2.152   1.433  -2.455  1.00  0.00     0.311 C
ATOM      4  O   UNL     1      -1.821   0.320  -2.070  1.00  0.00    -0.252 OA
BRANCH   3   5
ATOM      5  C   UNL     1      -1.450   2.658  -1.990  1.00  0.00     0.113 C
ATOM      6  C   UNL     1      -0.593   2.563  -0.769  1.00  0.00     0.035 C
ATOM      7  C   UNL     1      -1.881   3.332  -0.727  1.00  0.00    -0.014 C
ATOM      8  C   UNL     1      -2.999   2.749   0.072  1.00  0.00     0.012 C
ATOM      9  C   UNL     1      -1.852   4.824  -0.712  1.00  0.00     0.012 C
BRANCH   6  10
ATOM     10  C   UNL     1      -0.478   1.275  -0.102  1.00  0.00     0.001 C
ATOM     11  Br  UNL     1       2.352   1.396   0.138  1.00  0.00    -0.043 Br
ATOM     12  C   UNL     1       0.639   0.664   0.327  1.00  0.00     0.057 C
ATOM     13  Br  UNL     1       0.563  -1.009   1.171  1.00  0.00    -0.043 Br
ENDBRANCH   6  10
ENDBRANCH   3   5
ENDBRANCH   2   3
ENDBRANCH   1   2
BRANCH   1  14
ATOM     14  C   UNL     1      -5.188   2.886  -2.794  1.00  0.00     0.011 A
ATOM     15  C   UNL     1      -4.632   3.983  -3.453  1.00  0.00     0.055 A
ATOM     16  C   UNL     1      -6.406   3.018  -2.127  1.00  0.00     0.009 A
ATOM     17  C   UNL     1      -5.293   5.210  -3.444  1.00  0.00     0.127 A
ATOM     18  C   UNL     1      -7.066   4.246  -2.118  1.00  0.00     0.004 A
ATOM     19  C   UNL     1      -6.510   5.343  -2.776  1.00  0.00     0.047 A
BRANCH  17  20
ATOM     20  O   UNL     1      -4.750   6.281  -4.087  1.00  0.00    -0.457 OA
BRANCH  20  21
ATOM     21  C   UNL     1      -3.636   6.875  -3.518  1.00  0.00     0.127 A
ATOM     22  C   UNL     1      -2.402   6.705  -4.118  1.00  0.00     0.047 A
ATOM     23  C   UNL     1      -3.786   7.624  -2.364  1.00  0.00     0.047 A
ATOM     24  C   UNL     1      -1.279   7.303  -3.545  1.00  0.00     0.004 A
ATOM     25  C   UNL     1      -2.664   8.221  -1.792  1.00  0.00     0.004 A
ATOM     26  C   UNL     1      -1.410   8.062  -2.382  1.00  0.00     0.000 A
ENDBRANCH  20  21
ENDBRANCH  17  20
ENDBRANCH   1  14
BRANCH   1  27
ATOM     27  C   UNL     1      -5.195   0.551  -3.596  1.00  0.00     0.113 C
ATOM     28  N   UNL     1      -5.746  -0.258  -4.220  1.00  0.00    -0.194 NA
ENDBRANCH   1  27
TORSDOF 8
ENDMDL
MODEL 3
REMARK VINA RESULT:    -6.939      3.360      7.249
REMARK INTER + INTRA:         -11.261
REMARK INTER:                 -10.466
REMARK INTRA:                  -0.796
REMARK UNBOUND:                -1.077
REMARK SMILES CC1(C)C(C=C(Br)Br)C1C(=O)OC(C#N)c1cccc(Oc2ccccc2)c1
REMARK SMILES IDX 13 1 12 2 10 3 11 4 9 5 4 6 2 7 1 8 3 9 5 10 7 11 6 12 8 13
REMARK SMILES IDX 16 14 28 15 17 16 20 17 18 18 19 19 21 20 22 21 23 22 27 23
REMARK SMILES IDX 24 24 26 25 25 26 14 27 15 28
REMARK H PARENT
REMARK Flexibility Score: inf
ROOT
ATOM      1  C   UNL     1      -4.178   1.552  -2.600  1.00  0.00     0.309 C
ENDROOT
BRANCH   1   2
ATOM      2  O   UNL     1      -2.889   1.671  -3.216  1.00  0.00    -0.442 OA
BRANCH   2   3
ATOM      3  C   UNL     1      -1.857   1.128  -2.515  1.00  0.00     0.311 C
ATOM      4  O   UNL     1      -1.734  -0.038  -2.168  1.00  0.00    -0.252 OA
BRANCH   3   5
ATOM      5  C   UNL     1      -0.829   2.150  -2.187  1.00  0.00     0.113 C
ATOM      6  C   UNL     1       0.128   1.862  -1.075  1.00  0.00     0.035 C
ATOM      7  C   UNL     1      -0.922   2.921  -0.909  1.00  0.00    -0.014 C
ATOM      8  C   UNL     1      -2.037   2.637   0.041  1.00  0.00     0.012 C
ATOM      9  C   UNL     1      -0.533   4.361  -0.958  1.00  0.00     0.012 C
BRANCH   6  10
ATOM     10  C   UNL     1       0.012   0.591  -0.374  1.00  0.00     0.001 C
ATOM     11  Br  UNL     1       2.303   1.021   1.253  1.00  0.00    -0.043 Br
ATOM     12  C   UNL     1       0.811   0.105   0.591  1.00  0.00     0.057 C
ATOM     13  Br  UNL     1       0.480  -1.570   1.368  1.00  0.00    -0.043 Br
ENDBRANCH   6  10
ENDBRANCH   3   5
ENDBRANCH   2   3
ENDBRANCH   1   2
BRANCH   1  14
ATOM     14  C   UNL     1      -4.848   2.883  -2.563  1.00  0.00     0.011 A
ATOM     15  C   UNL     1      -6.241   2.963  -2.521  1.00  0.00     0.055 A
ATOM     16  C   UNL     1      -4.083   4.049  -2.569  1.00  0.00     0.009 A
ATOM     17  C   UNL     1      -6.867   4.208  -2.486  1.00  0.00     0.127 A
ATOM     18  C   UNL     1      -4.710   5.295  -2.534  1.00  0.00     0.004 A
ATOM     19  C   UNL     1      -6.102   5.374  -2.493  1.00  0.00     0.047 A
BRANCH  17  20
ATOM     20  O   UNL     1      -8.226   4.287  -2.446  1.00  0.00    -0.457 OA
BRANCH  20  21
ATOM     21  C   UNL     1      -8.828   4.383  -1.202  1.00  0.00     0.127 A
ATOM     22  C   UNL     1      -9.529   3.298  -0.708  1.00  0.00     0.047 A
ATOM     23  C   UNL     1      -8.713   5.561  -0.487  1.00  0.00     0.047 A
ATOM     24  C   UNL     1     -10.137   3.394   0.544  1.00  0.00     0.004 A
ATOM     25  C   UNL     1      -9.320   5.658   0.764  1.00  0.00     0.004 A
ATOM     26  C   UNL     1     -10.031   4.575   1.281  1.00  0.00     0.000 A
ENDBRANCH  20  21
ENDBRANCH  17  20
ENDBRANCH   1  14
BRANCH   1  27
ATOM     27  C   UNL     1      -4.972   0.536  -3.320  1.00  0.00     0.113 C
ATOM     28  N   UNL     1      -5.588  -0.265  -3.892  1.00  0.00    -0.194 NA
ENDBRANCH   1  27
TORSDOF 8
ENDMDL
MODEL 4
REMARK VINA RESULT:    -6.880      3.075      5.543
REMARK INTER + INTRA:         -11.175
REMARK INTER:                  -9.914
REMARK INTRA:                  -1.261
REMARK UNBOUND:                -1.077
REMARK SMILES CC1(C)C(C=C(Br)Br)C1C(=O)OC(C#N)c1cccc(Oc2ccccc2)c1
REMARK SMILES IDX 13 1 12 2 10 3 11 4 9 5 4 6 2 7 1 8 3 9 5 10 7 11 6 12 8 13
REMARK SMILES IDX 16 14 28 15 17 16 20 17 18 18 19 19 21 20 22 21 23 22 27 23
REMARK SMILES IDX 24 24 26 25 25 26 14 27 15 28
REMARK H PARENT
REMARK Flexibility Score: inf
ROOT
ATOM      1  C   UNL     1      -0.510   2.273  -0.753  1.00  0.00     0.309 C
ENDROOT
BRANCH   1   2
ATOM      2  O   UNL     1       0.138   3.145  -1.690  1.00  0.00    -0.442 OA
BRANCH   2   3
ATOM      3  C   UNL     1      -0.236   4.451  -1.623  1.00  0.00     0.311 C
ATOM      4  O   UNL     1       0.096   5.270  -0.778  1.00  0.00    -0.252 OA
BRANCH   3   5
ATOM      5  C   UNL     1      -1.142   4.813  -2.744  1.00  0.00     0.113 C
ATOM      6  C   UNL     1      -0.546   5.019  -4.099  1.00  0.00     0.035 C
ATOM      7  C   UNL     1      -1.093   6.187  -3.331  1.00  0.00    -0.014 C
ATOM      8  C   UNL     1      -0.110   7.177  -2.802  1.00  0.00     0.012 C
ATOM      9  C   UNL     1      -2.393   6.796  -3.738  1.00  0.00     0.012 C
BRANCH   6  10
ATOM     10  C   UNL     1       0.890   4.846  -4.258  1.00  0.00     0.001 C
ATOM     11  Br  UNL     1       0.735   2.037  -4.663  1.00  0.00    -0.043 Br
ATOM     12  C   UNL     1       1.563   3.707  -4.489  1.00  0.00     0.057 C
ATOM     13  Br  UNL     1       3.431   3.705  -4.662  1.00  0.00    -0.043 Br
ENDBRANCH   6  10
ENDBRANCH   3   5
ENDBRANCH   2   3
ENDBRANCH   1   2
BRANCH   1  14
ATOM     14  C   UNL     1      -1.330   1.264  -1.480  1.00  0.00     0.011 A
ATOM     15  C   UNL     1      -2.661   1.541  -1.795  1.00  0.00     0.055 A
ATOM     16  C   UNL     1      -0.767   0.042  -1.849  1.00  0.00     0.009 A
ATOM     17  C   UNL     1      -3.428   0.596  -2.476  1.00  0.00     0.127 A
ATOM     18  C   UNL     1      -1.534  -0.902  -2.530  1.00  0.00     0.004 A
ATOM     19  C   UNL     1      -2.865  -0.626  -2.843  1.00  0.00     0.047 A
BRANCH  17  20
ATOM     20  O   UNL     1      -4.727   0.866  -2.782  1.00  0.00    -0.457 OA
BRANCH  20  21
ATOM     21  C   UNL     1      -5.041   2.157  -3.173  1.00  0.00     0.127 A
ATOM     22  C   UNL     1      -4.364   2.721  -4.238  1.00  0.00     0.047 A
ATOM     23  C   UNL     1      -6.025   2.848  -2.489  1.00  0.00     0.047 A
ATOM     24  C   UNL     1      -4.679   4.022  -4.632  1.00  0.00     0.004 A
ATOM     25  C   UNL     1      -6.341   4.148  -2.882  1.00  0.00     0.004 A
ATOM     26  C   UNL     1      -5.669   4.735  -3.955  1.00  0.00     0.000 A
ENDBRANCH  20  21
ENDBRANCH  17  20
ENDBRANCH   1  14
BRANCH   1  27
ATOM     27  C   UNL     1       0.506   1.655   0.123  1.00  0.00     0.113 C
ATOM     28  N   UNL     1       1.306   1.180   0.817  1.00  0.00    -0.194 NA
ENDBRANCH   1  27
TORSDOF 8
ENDMDL
MODEL 5
REMARK VINA RESULT:    -6.731      2.079      5.358
REMARK INTER + INTRA:         -10.956
REMARK INTER:                  -9.660
REMARK INTRA:                  -1.296
REMARK UNBOUND:                -1.077
REMARK SMILES CC1(C)C(C=C(Br)Br)C1C(=O)OC(C#N)c1cccc(Oc2ccccc2)c1
REMARK SMILES IDX 13 1 12 2 10 3 11 4 9 5 4 6 2 7 1 8 3 9 5 10 7 11 6 12 8 13
REMARK SMILES IDX 16 14 28 15 17 16 20 17 18 18 19 19 21 20 22 21 23 22 27 23
REMARK SMILES IDX 24 24 26 25 25 26 14 27 15 28
REMARK H PARENT
REMARK Flexibility Score: inf
ROOT
ATOM      1  C   UNL     1      -2.659   0.994  -3.278  1.00  0.00     0.309 C
ENDROOT
BRANCH   1   2
ATOM      2  O   UNL     1      -1.466   1.553  -3.845  1.00  0.00    -0.442 OA
BRANCH   2   3
ATOM      3  C   UNL     1      -0.386   1.577  -3.018  1.00  0.00     0.311 C
ATOM      4  O   UNL     1       0.699   2.098  -3.237  1.00  0.00    -0.252 OA
BRANCH   3   5
ATOM      5  C   UNL     1      -0.663   0.864  -1.744  1.00  0.00     0.113 C
ATOM      6  C   UNL     1      -1.045   1.675  -0.547  1.00  0.00     0.035 C
ATOM      7  C   UNL     1       0.288   0.986  -0.596  1.00  0.00    -0.014 C
ATOM      8  C   UNL     1       1.498   1.849  -0.734  1.00  0.00     0.012 C
ATOM      9  C   UNL     1       0.519  -0.238   0.225  1.00  0.00     0.012 C
BRANCH   6  10
ATOM     10  C   UNL     1      -1.136   3.120  -0.690  1.00  0.00     0.001 C
ATOM     11  Br  UNL     1      -3.668   3.314   0.587  1.00  0.00    -0.043 Br
ATOM     12  C   UNL     1      -2.130   3.929  -0.286  1.00  0.00     0.057 C
ATOM     13  Br  UNL     1      -2.048   5.780  -0.571  1.00  0.00    -0.043 Br
ENDBRANCH   6  10
ENDBRANCH   3   5
ENDBRANCH   2   3
ENDBRANCH   1   2
BRANCH   1  14
ATOM     14  C   UNL     1      -3.733   2.026  -3.234  1.00  0.00     0.011 A
ATOM     15  C   UNL     1      -3.605   3.199  -3.979  1.00  0.00     0.055 A
ATOM     16  C   UNL     1      -4.867   1.818  -2.450  1.00  0.00     0.009 A
ATOM     17  C   UNL     1      -4.611   4.164  -3.937  1.00  0.00     0.127 A
ATOM     18  C   UNL     1      -5.873   2.784  -2.409  1.00  0.00     0.004 A
ATOM     19  C   UNL     1      -5.745   3.957  -3.152  1.00  0.00     0.047 A
BRANCH  17  20
ATOM     20  O   UNL     1      -4.486   5.309  -4.663  1.00  0.00    -0.457 OA
BRANCH  20  21
ATOM     21  C   UNL     1      -4.001   6.432  -4.013  1.00  0.00     0.127 A
ATOM     22  C   UNL     1      -4.842   7.142  -3.176  1.00  0.00     0.047 A
ATOM     23  C   UNL     1      -2.687   6.815  -4.219  1.00  0.00     0.047 A
ATOM     24  C   UNL     1      -4.353   8.274  -2.522  1.00  0.00     0.004 A
ATOM     25  C   UNL     1      -2.199   7.946  -3.566  1.00  0.00     0.004 A
ATOM     26  C   UNL     1      -3.031   8.675  -2.717  1.00  0.00     0.000 A
ENDBRANCH  20  21
ENDBRANCH  17  20
ENDBRANCH   1  14
BRANCH   1  27
ATOM     27  C   UNL     1      -3.051  -0.203  -4.050  1.00  0.00     0.113 C
ATOM     28  N   UNL     1      -3.371  -1.142  -4.653  1.00  0.00    -0.194 NA
ENDBRANCH   1  27
TORSDOF 8
ENDMDL
