MODEL 1
REMARK VINA RESULT:    -6.626      0.000      0.000
REMARK INTER + INTRA:         -12.473
REMARK INTER:                  -9.338
REMARK INTRA:                  -3.135
REMARK UNBOUND:                -3.135
REMARK SMILES CC1(C)[C@H](C=C(Cl)Cl)[C@H]1C(=O)OCc1cccc(Oc2ccccc2)c1
REMARK SMILES IDX 13 1 12 2 10 3 11 4 9 5 4 6 2 7 1 8 3 9 5 10 7 11 6 12 8 13
REMARK SMILES IDX 14 14 26 15 15 16 18 17 16 18 17 19 19 20 20 21 21 22 25 23
REMARK SMILES IDX 22 24 24 25 23 26
REMARK H PARENT
REMARK Flexibility Score: inf
ROOT
ATOM      1  C   UNL     1      -0.710   6.688  -3.236  1.00  0.00     0.268 C 
ENDROOT
BRANCH   1   2
ATOM      2  O   UNL     1      -0.606   5.307  -2.916  1.00  0.00    -0.461 OA
BRANCH   2   3
ATOM      3  C   UNL     1      -0.236   5.020  -1.634  1.00  0.00     0.310 C 
ATOM      4  O   UNL     1       0.485   5.698  -0.915  1.00  0.00    -0.252 OA
BRANCH   3   5
ATOM      5  C   UNL     1      -0.821   3.740  -1.163  1.00  0.00     0.113 C 
ATOM      6  C   UNL     1      -2.006   3.191  -1.891  1.00  0.00     0.035 C 
ATOM      7  C   UNL     1      -2.161   3.728  -0.499  1.00  0.00    -0.014 C 
ATOM      8  C   UNL     1      -2.433   2.745   0.590  1.00  0.00     0.012 C 
ATOM      9  C   UNL     1      -2.824   5.046  -0.282  1.00  0.00     0.012 C 
BRANCH   6  10
ATOM     10  C   UNL     1      -2.060   1.757  -2.138  1.00  0.00     0.011 C 
ATOM     11  Cl  UNL     1      -1.075   1.923  -4.641  1.00  0.00    -0.071 Cl
ATOM     12  C   UNL     1      -1.697   1.104  -3.253  1.00  0.00     0.103 C 
ATOM     13  Cl  UNL     1      -1.844  -0.616  -3.346  1.00  0.00    -0.071 Cl
ENDBRANCH   6  10
ENDBRANCH   3   5
ENDBRANCH   2   3
ENDBRANCH   1   2
BRANCH   1  14
ATOM     14  C   UNL     1      -2.132   7.121  -3.111  1.00  0.00    -0.007 A 
ATOM     15  C   UNL     1      -3.152   6.323  -3.630  1.00  0.00     0.054 A 
ATOM     16  C   UNL     1      -2.441   8.323  -2.475  1.00  0.00     0.007 A 
ATOM     17  C   UNL     1      -4.481   6.729  -3.512  1.00  0.00     0.127 A 
ATOM     18  C   UNL     1      -3.770   8.728  -2.358  1.00  0.00     0.004 A 
ATOM     19  C   UNL     1      -4.790   7.930  -2.876  1.00  0.00     0.047 A 
BRANCH  17  20
ATOM     20  O   UNL     1      -5.477   5.950  -4.018  1.00  0.00    -0.457 OA
BRANCH  20  21
ATOM     21  C   UNL     1      -5.469   4.604  -3.697  1.00  0.00     0.127 A 
ATOM     22  C   UNL     1      -5.819   4.216  -2.415  1.00  0.00     0.047 A 
ATOM     23  C   UNL     1      -5.112   3.682  -4.663  1.00  0.00     0.047 A 
ATOM     24  C   UNL     1      -5.811   2.860  -2.091  1.00  0.00     0.004 A 
ATOM     25  C   UNL     1      -5.105   2.325  -4.338  1.00  0.00     0.004 A 
ATOM     26  C   UNL     1      -5.455   1.914  -3.052  1.00  0.00     0.000 A 
ENDBRANCH  20  21
ENDBRANCH  17  20
ENDBRANCH   1  14
TORSDOF 7
ENDMDL
MODEL 2
REMARK VINA RESULT:    -6.376      2.831      6.063
REMARK INTER + INTRA:         -12.121
REMARK INTER:                  -9.252
REMARK INTRA:                  -2.869
REMARK UNBOUND:                -3.135
REMARK SMILES CC1(C)[C@H](C=C(Cl)Cl)[C@H]1C(=O)OCc1cccc(Oc2ccccc2)c1
REMARK SMILES IDX 13 1 12 2 10 3 11 4 9 5 4 6 2 7 1 8 3 9 5 10 7 11 6 12 8 13
REMARK SMILES IDX 14 14 26 15 15 16 18 17 16 18 17 19 19 20 20 21 21 22 25 23
REMARK SMILES IDX 22 24 24 25 23 26
REMARK H PARENT
REMARK Flexibility Score: inf
ROOT
ATOM      1  C   UNL     1      -5.140   2.909  -4.620  1.00  0.00     0.268 C 
ENDROOT
BRANCH   1   2
ATOM      2  O   UNL     1      -4.392   3.894  -3.916  1.00  0.00    -0.461 OA
BRANCH   2   3
ATOM      3  C   UNL     1      -4.853   4.213  -2.672  1.00  0.00     0.310 C 
ATOM      4  O   UNL     1      -5.996   4.070  -2.259  1.00  0.00    -0.252 OA
BRANCH   3   5
ATOM      5  C   UNL     1      -3.782   4.780  -1.814  1.00  0.00     0.113 C 
ATOM      6  C   UNL     1      -2.359   4.497  -2.177  1.00  0.00     0.035 C 
ATOM      7  C   UNL     1      -2.960   3.879  -0.948  1.00  0.00    -0.014 C 
ATOM      8  C   UNL     1      -2.477   4.372   0.374  1.00  0.00     0.012 C 
ATOM      9  C   UNL     1      -3.315   2.430  -0.944  1.00  0.00     0.012 C 
BRANCH   6  10
ATOM     10  C   UNL     1      -1.390   5.577  -2.059  1.00  0.00     0.011 C 
ATOM     11  Cl  UNL     1      -2.139   6.799  -4.341  1.00  0.00    -0.071 Cl
ATOM     12  C   UNL     1      -1.201   6.603  -2.904  1.00  0.00     0.103 C 
ATOM     13  Cl  UNL     1       0.016   7.788  -2.582  1.00  0.00    -0.071 Cl
ENDBRANCH   6  10
ENDBRANCH   3   5
ENDBRANCH   2   3
ENDBRANCH   1   2
BRANCH   1  14
ATOM     14  C   UNL     1      -4.468   1.585  -4.484  1.00  0.00    -0.007 A 
ATOM     15  C   UNL     1      -3.083   1.519  -4.327  1.00  0.00     0.054 A 
ATOM     16  C   UNL     1      -5.224   0.413  -4.514  1.00  0.00     0.007 A 
ATOM     17  C   UNL     1      -2.456   0.280  -4.200  1.00  0.00     0.127 A 
ATOM     18  C   UNL     1      -4.596  -0.825  -4.388  1.00  0.00     0.004 A 
ATOM     19  C   UNL     1      -3.211  -0.892  -4.230  1.00  0.00     0.047 A 
BRANCH  17  20
ATOM     20  O   UNL     1      -1.104   0.214  -4.047  1.00  0.00    -0.457 OA
BRANCH  20  21
ATOM     21  C   UNL     1      -0.574   0.609  -2.831  1.00  0.00     0.127 A 
ATOM     22  C   UNL     1      -0.000   1.864  -2.722  1.00  0.00     0.047 A 
ATOM     23  C   UNL     1      -0.631  -0.259  -1.756  1.00  0.00     0.047 A 
ATOM     24  C   UNL     1       0.534   2.262  -1.497  1.00  0.00     0.004 A 
ATOM     25  C   UNL     1      -0.096   0.140  -0.531  1.00  0.00     0.004 A 
ATOM     26  C   UNL     1       0.486   1.401  -0.402  1.00  0.00     0.000 A 
ENDBRANCH  20  21
ENDBRANCH  17  20
ENDBRANCH   1  14
TORSDOF 7
ENDMDL
MODEL 3
REMARK VINA RESULT:    -6.321      2.293      4.573
REMARK INTER + INTRA:         -12.042
REMARK INTER:                  -9.863
REMARK INTRA:                  -2.180
REMARK UNBOUND:                -3.135
REMARK SMILES CC1(C)[C@H](C=C(Cl)Cl)[C@H]1C(=O)OCc1cccc(Oc2ccccc2)c1
REMARK SMILES IDX 13 1 12 2 10 3 11 4 9 5 4 6 2 7 1 8 3 9 5 10 7 11 6 12 8 13
REMARK SMILES IDX 14 14 26 15 15 16 18 17 16 18 17 19 19 20 20 21 21 22 25 23
REMARK SMILES IDX 22 24 24 25 23 26
REMARK H PARENT
REMARK Flexibility Score: inf
ROOT
ATOM      1  C   UNL     1      -4.509   2.070  -4.105  1.00  0.00     0.268 C 
ENDROOT
BRANCH   1   2
ATOM      2  O   UNL     1      -3.121   2.140  -3.805  1.00  0.00    -0.461 OA
BRANCH   2   3
ATOM      3  C   UNL     1      -2.748   1.624  -2.598  1.00  0.00     0.310 C 
ATOM      4  O   UNL     1      -3.252   0.666  -2.028  1.00  0.00    -0.252 OA
BRANCH   3   5
ATOM      5  C   UNL     1      -1.610   2.370  -2.005  1.00  0.00     0.113 C 
ATOM      6  C   UNL     1      -1.275   2.129  -0.567  1.00  0.00     0.035 C 
ATOM      7  C   UNL     1      -1.863   3.443  -0.993  1.00  0.00    -0.014 C 
ATOM      8  C   UNL     1      -0.972   4.639  -0.952  1.00  0.00     0.012 C 
ATOM      9  C   UNL     1      -3.286   3.756  -0.676  1.00  0.00     0.012 C 
BRANCH   6  10
ATOM     10  C   UNL     1       0.129   2.036  -0.192  1.00  0.00     0.011 C 
ATOM     11  Cl  UNL     1       0.191  -0.657  -0.215  1.00  0.00    -0.071 Cl
ATOM     12  C   UNL     1       0.857   0.923  -0.013  1.00  0.00     0.103 C 
ATOM     13  Cl  UNL     1       2.523   1.031   0.438  1.00  0.00    -0.071 Cl
ENDBRANCH   6  10
ENDBRANCH   3   5
ENDBRANCH   2   3
ENDBRANCH   1   2
BRANCH   1  14
ATOM     14  C   UNL     1      -5.205   3.248  -3.512  1.00  0.00    -0.007 A 
ATOM     15  C   UNL     1      -4.776   4.539  -3.819  1.00  0.00     0.054 A 
ATOM     16  C   UNL     1      -6.286   3.058  -2.651  1.00  0.00     0.007 A 
ATOM     17  C   UNL     1      -5.427   5.640  -3.263  1.00  0.00     0.127 A 
ATOM     18  C   UNL     1      -6.937   4.159  -2.096  1.00  0.00     0.004 A 
ATOM     19  C   UNL     1      -6.508   5.450  -2.403  1.00  0.00     0.047 A 
BRANCH  17  20
ATOM     20  O   UNL     1      -5.008   6.901  -3.562  1.00  0.00    -0.457 OA
BRANCH  20  21
ATOM     21  C   UNL     1      -3.733   7.266  -3.169  1.00  0.00     0.127 A 
ATOM     22  C   UNL     1      -2.702   7.211  -4.091  1.00  0.00     0.047 A 
ATOM     23  C   UNL     1      -3.520   7.676  -1.866  1.00  0.00     0.047 A 
ATOM     24  C   UNL     1      -1.417   7.578  -3.695  1.00  0.00     0.004 A 
ATOM     25  C   UNL     1      -2.233   8.044  -1.471  1.00  0.00     0.004 A 
ATOM     26  C   UNL     1      -1.182   7.996  -2.386  1.00  0.00     0.000 A 
ENDBRANCH  20  21
ENDBRANCH  17  20
ENDBRANCH   1  14
TORSDOF 7
ENDMDL
MODEL 4
REMARK VINA RESULT:    -6.091      1.486      2.067
REMARK INTER + INTRA:         -11.719
REMARK INTER:                  -8.919
REMARK INTRA:                  -2.800
REMARK UNBOUND:                -3.135
REMARK SMILES CC1(C)[C@H](C=C(Cl)Cl)[C@H]1C(=O)OCc1cccc(Oc2ccccc2)c1
REMARK SMILES IDX 13 1 12 2 10 3 11 4 9 5 4 6 2 7 1 8 3 9 5 10 7 11 6 12 8 13
REMARK SMILES IDX 14 14 26 15 15 16 18 17 16 18 17 19 19 20 20 21 21 22 25 23
REMARK SMILES IDX 22 24 24 25 23 26
REMARK H PARENT
REMARK Flexibility Score: inf
ROOT
ATOM      1  C   UNL     1       0.752   4.639  -2.756  1.00  0.00     0.268 C 
ENDROOT
BRANCH   1   2
ATOM      2  O   UNL     1      -0.007   3.445  -2.616  1.00  0.00    -0.461 OA
BRANCH   2   3
ATOM      3  C   UNL     1       0.037   2.854  -1.387  1.00  0.00     0.310 C 
ATOM      4  O   UNL     1       1.014   2.763  -0.656  1.00  0.00    -0.252 OA
BRANCH   3   5
ATOM      5  C   UNL     1      -1.284   2.302  -0.991  1.00  0.00     0.113 C 
ATOM      6  C   UNL     1      -2.476   2.651  -1.824  1.00  0.00     0.035 C 
ATOM      7  C   UNL     1      -2.338   3.207  -0.437  1.00  0.00    -0.014 C 
ATOM      8  C   UNL     1      -3.274   2.693   0.604  1.00  0.00     0.012 C 
ATOM      9  C   UNL     1      -1.973   4.641  -0.247  1.00  0.00     0.012 C 
BRANCH   6  10
ATOM     10  C   UNL     1      -3.449   1.605  -2.106  1.00  0.00     0.011 C 
ATOM     11  Cl  UNL     1      -2.031   0.513  -4.120  1.00  0.00    -0.071 Cl
ATOM     12  C   UNL     1      -3.375   0.649  -3.044  1.00  0.00     0.103 C 
ATOM     13  Cl  UNL     1      -4.651  -0.506  -3.218  1.00  0.00    -0.071 Cl
ENDBRANCH   6  10
ENDBRANCH   3   5
ENDBRANCH   2   3
ENDBRANCH   1   2
BRANCH   1  14
ATOM     14  C   UNL     1      -0.168   5.785  -3.007  1.00  0.00    -0.007 A 
ATOM     15  C   UNL     1      -1.360   5.583  -3.703  1.00  0.00     0.054 A 
ATOM     16  C   UNL     1       0.162   7.059  -2.544  1.00  0.00     0.007 A 
ATOM     17  C   UNL     1      -2.221   6.656  -3.937  1.00  0.00     0.127 A 
ATOM     18  C   UNL     1      -0.698   8.131  -2.778  1.00  0.00     0.004 A 
ATOM     19  C   UNL     1      -1.890   7.929  -3.475  1.00  0.00     0.047 A 
BRANCH  17  20
ATOM     20  O   UNL     1      -3.384   6.459  -4.617  1.00  0.00    -0.457 OA
BRANCH  20  21
ATOM     21  C   UNL     1      -4.325   5.615  -4.053  1.00  0.00     0.127 A 
ATOM     22  C   UNL     1      -4.969   6.005  -2.891  1.00  0.00     0.047 A 
ATOM     23  C   UNL     1      -4.597   4.405  -4.662  1.00  0.00     0.047 A 
ATOM     24  C   UNL     1      -5.917   5.155  -2.323  1.00  0.00     0.004 A 
ATOM     25  C   UNL     1      -5.546   3.555  -4.093  1.00  0.00     0.004 A 
ATOM     26  C   UNL     1      -6.206   3.930  -2.924  1.00  0.00     0.000 A 
ENDBRANCH  20  21
ENDBRANCH  17  20
ENDBRANCH   1  14
TORSDOF 7
ENDMDL
MODEL 5
REMARK VINA RESULT:    -6.039      2.676      5.097
REMARK INTER + INTRA:         -11.646
REMARK INTER:                  -9.033
REMARK INTRA:                  -2.613
REMARK UNBOUND:                -3.135
REMARK SMILES CC1(C)[C@H](C=C(Cl)Cl)[C@H]1C(=O)OCc1cccc(Oc2ccccc2)c1
REMARK SMILES IDX 13 1 12 2 10 3 11 4 9 5 4 6 2 7 1 8 3 9 5 10 7 11 6 12 8 13
REMARK SMILES IDX 14 14 26 15 15 16 18 17 16 18 17 19 19 20 20 21 21 22 25 23
REMARK SMILES IDX 22 24 24 25 23 26
REMARK H PARENT
REMARK Flexibility Score: inf
ROOT
ATOM      1  C   UNL     1      -4.129   1.048  -2.304  1.00  0.00     0.268 C 
ENDROOT
BRANCH   1   2
ATOM      2  O   UNL     1      -2.734   0.922  -2.061  1.00  0.00    -0.461 OA
BRANCH   2   3
ATOM      3  C   UNL     1      -1.960   0.677  -3.158  1.00  0.00     0.310 C 
ATOM      4  O   UNL     1      -2.318   0.144  -4.199  1.00  0.00    -0.252 OA
BRANCH   3   5
ATOM      5  C   UNL     1      -0.563   1.143  -2.964  1.00  0.00     0.113 C 
ATOM      6  C   UNL     1      -0.306   2.206  -1.943  1.00  0.00     0.035 C 
ATOM      7  C   UNL     1      -0.164   2.516  -3.405  1.00  0.00    -0.014 C 
ATOM      8  C   UNL     1       1.214   2.748  -3.927  1.00  0.00     0.012 C 
ATOM      9  C   UNL     1      -1.202   3.338  -4.092  1.00  0.00     0.012 C 
BRANCH   6  10
ATOM     10  C   UNL     1       0.874   2.079  -1.099  1.00  0.00     0.011 C 
ATOM     11  Cl  UNL     1       0.134  -0.283  -0.033  1.00  0.00    -0.071 Cl
ATOM     12  C   UNL     1       1.172   1.080  -0.254  1.00  0.00     0.103 C 
ATOM     13  Cl  UNL     1       2.634   1.122   0.667  1.00  0.00    -0.071 Cl
ENDBRANCH   6  10
ENDBRANCH   3   5
ENDBRANCH   2   3
ENDBRANCH   1   2
BRANCH   1  14
ATOM     14  C   UNL     1      -4.495   2.493  -2.361  1.00  0.00    -0.007 A 
ATOM     15  C   UNL     1      -3.714   3.436  -1.692  1.00  0.00     0.054 A 
ATOM     16  C   UNL     1      -5.616   2.901  -3.083  1.00  0.00     0.007 A 
ATOM     17  C   UNL     1      -4.056   4.787  -1.746  1.00  0.00     0.127 A 
ATOM     18  C   UNL     1      -5.958   4.252  -3.135  1.00  0.00     0.004 A 
ATOM     19  C   UNL     1      -5.178   5.195  -2.467  1.00  0.00     0.047 A 
BRANCH  17  20
ATOM     20  O   UNL     1      -3.295   5.708  -1.093  1.00  0.00    -0.457 OA
BRANCH  20  21
ATOM     21  C   UNL     1      -2.119   6.117  -1.699  1.00  0.00     0.127 A 
ATOM     22  C   UNL     1      -2.181   6.998  -2.764  1.00  0.00     0.047 A 
ATOM     23  C   UNL     1      -0.913   5.636  -1.224  1.00  0.00     0.047 A 
ATOM     24  C   UNL     1      -0.997   7.411  -3.374  1.00  0.00     0.004 A 
ATOM     25  C   UNL     1       0.272   6.049  -1.835  1.00  0.00     0.004 A 
ATOM     26  C   UNL     1       0.229   6.937  -2.910  1.00  0.00     0.000 A 
ENDBRANCH  20  21
ENDBRANCH  17  20
ENDBRANCH   1  14
TORSDOF 7
ENDMDL
