MODEL 1
REMARK VINA RESULT:    -6.217      0.000      0.000
REMARK INTER + INTRA:          -7.931
REMARK INTER:                  -7.307
REMARK INTRA:                  -0.624
REMARK UNBOUND:                -0.624
REMARK SMILES Clc1ccc(C(c2ccc(Cl)cc2)C(Cl)(Cl)Cl)cc1
REMARK SMILES IDX 6 1 14 2 15 3 16 4 17 5 5 6 4 7 18 8 3 9 19 10 2 11 1 12
REMARK SMILES IDX 7 13 8 14 13 15 9 16 12 17 10 18 11 19
REMARK H PARENT
REMARK Flexibility Score: inf
ROOT
ATOM      1  C   UNL     1      -1.300   1.982  -1.172  1.00  0.00     0.101 C 
ENDROOT
BRANCH   1   2
ATOM      2  C   UNL     1      -1.731   1.119  -2.431  1.00  0.00     0.201 C 
ATOM      3  Cl  UNL     1      -1.083   1.717  -3.992  1.00  0.00    -0.083 Cl
ATOM      4  Cl  UNL     1      -3.538   1.146  -2.586  1.00  0.00    -0.083 Cl
ATOM      5  Cl  UNL     1      -1.274  -0.618  -2.257  1.00  0.00    -0.083 Cl
ENDBRANCH   1   2
BRANCH   1   6
ATOM      6  C   UNL     1      -1.716   3.414  -1.198  1.00  0.00    -0.036 A 
ATOM      7  C   UNL     1      -1.576   4.160  -2.368  1.00  0.00     0.006 A 
ATOM      8  C   UNL     1      -2.244   4.008  -0.051  1.00  0.00     0.006 A 
ATOM      9  C   UNL     1      -1.964   5.500  -2.392  1.00  0.00     0.021 A 
ATOM     10  C   UNL     1      -2.633   5.347  -0.075  1.00  0.00     0.021 A 
ATOM     11  C   UNL     1      -2.493   6.093  -1.245  1.00  0.00     0.041 A 
ATOM     12  Cl  UNL     1      -2.972   7.746  -1.274  1.00  0.00    -0.084 Cl
ENDBRANCH   1   6
BRANCH   1  13
ATOM     13  C   UNL     1       0.154   1.790  -0.671  1.00  0.00    -0.036 A 
ATOM     14  C   UNL     1       1.166   2.306  -1.430  1.00  0.00     0.006 A 
ATOM     15  C   UNL     1       0.341   1.112   0.501  1.00  0.00     0.006 A 
ATOM     16  C   UNL     1       2.474   2.131  -0.980  1.00  0.00     0.021 A 
ATOM     17  C   UNL     1       1.650   0.937   0.952  1.00  0.00     0.021 A 
ATOM     18  C   UNL     1       2.716   1.447   0.211  1.00  0.00     0.041 A 
ATOM     19  Cl  UNL     1       4.331   1.230   0.767  1.00  0.00    -0.084 Cl
ENDBRANCH   1  13
TORSDOF 3
ENDMDL
MODEL 2
REMARK VINA RESULT:    -6.200      0.064      1.568
REMARK INTER + INTRA:          -7.911
REMARK INTER:                  -7.292
REMARK INTRA:                  -0.619
REMARK UNBOUND:                -0.624
REMARK SMILES Clc1ccc(C(c2ccc(Cl)cc2)C(Cl)(Cl)Cl)cc1
REMARK SMILES IDX 6 1 14 2 15 3 16 4 17 5 5 6 4 7 18 8 3 9 19 10 2 11 1 12
REMARK SMILES IDX 7 13 8 14 13 15 9 16 12 17 10 18 11 19
REMARK H PARENT
REMARK Flexibility Score: inf
ROOT
ATOM      1  C   UNL     1      -1.317   1.982  -1.213  1.00  0.00     0.101 C 
ENDROOT
BRANCH   1   2
ATOM      2  C   UNL     1      -1.745   1.118  -2.472  1.00  0.00     0.201 C 
ATOM      3  Cl  UNL     1      -1.093   1.714  -4.032  1.00  0.00    -0.083 Cl
ATOM      4  Cl  UNL     1      -3.553   1.146  -2.632  1.00  0.00    -0.083 Cl
ATOM      5  Cl  UNL     1      -1.291  -0.619  -2.295  1.00  0.00    -0.083 Cl
ENDBRANCH   1   2
BRANCH   1   6
ATOM      6  C   UNL     1      -1.738   3.413  -1.238  1.00  0.00    -0.036 A 
ATOM      7  C   UNL     1      -2.188   4.028  -0.070  1.00  0.00     0.006 A 
ATOM      8  C   UNL     1      -1.683   4.136  -2.430  1.00  0.00     0.006 A 
ATOM      9  C   UNL     1      -2.583   5.366  -0.094  1.00  0.00     0.021 A 
ATOM     10  C   UNL     1      -2.077   5.473  -2.454  1.00  0.00     0.021 A 
ATOM     11  C   UNL     1      -2.527   6.088  -1.286  1.00  0.00     0.041 A 
ATOM     12  Cl  UNL     1      -3.014   7.739  -1.315  1.00  0.00    -0.084 Cl
ENDBRANCH   1   6
BRANCH   1  13
ATOM     13  C   UNL     1       0.137   1.794  -0.711  1.00  0.00    -0.036 A 
ATOM     14  C   UNL     1       0.329   1.086   0.442  1.00  0.00     0.006 A 
ATOM     15  C   UNL     1       1.144   2.347  -1.451  1.00  0.00     0.006 A 
ATOM     16  C   UNL     1       1.638   0.918   0.893  1.00  0.00     0.021 A 
ATOM     17  C   UNL     1       2.453   2.180  -0.999  1.00  0.00     0.021 A 
ATOM     18  C   UNL     1       2.700   1.465   0.173  1.00  0.00     0.041 A 
ATOM     19  Cl  UNL     1       4.316   1.258   0.731  1.00  0.00    -0.084 Cl
ENDBRANCH   1  13
TORSDOF 3
ENDMDL
MODEL 3
REMARK VINA RESULT:    -5.983      2.318      4.869
REMARK INTER + INTRA:          -7.656
REMARK INTER:                  -7.053
REMARK INTRA:                  -0.603
REMARK UNBOUND:                -0.624
REMARK SMILES Clc1ccc(C(c2ccc(Cl)cc2)C(Cl)(Cl)Cl)cc1
REMARK SMILES IDX 6 1 14 2 15 3 16 4 17 5 5 6 4 7 18 8 3 9 19 10 2 11 1 12
REMARK SMILES IDX 7 13 8 14 13 15 9 16 12 17 10 18 11 19
REMARK H PARENT
REMARK Flexibility Score: inf
ROOT
ATOM      1  C   UNL     1      -0.120   1.478  -1.798  1.00  0.00     0.101 C 
ENDROOT
BRANCH   1   2
ATOM      2  C   UNL     1       0.256   0.949  -0.350  1.00  0.00     0.201 C 
ATOM      3  Cl  UNL     1      -0.777   1.598   0.964  1.00  0.00    -0.083 Cl
ATOM      4  Cl  UNL     1       1.956   1.446   0.047  1.00  0.00    -0.083 Cl
ATOM      5  Cl  UNL     1       0.231  -0.852  -0.253  1.00  0.00    -0.083 Cl
ENDBRANCH   1   2
BRANCH   1   6
ATOM      6  C   UNL     1      -0.038   2.955  -1.987  1.00  0.00    -0.036 A 
ATOM      7  C   UNL     1      -0.551   3.812  -1.014  1.00  0.00     0.006 A 
ATOM      8  C   UNL     1       0.550   3.479  -3.138  1.00  0.00     0.006 A 
ATOM      9  C   UNL     1      -0.475   5.194  -1.191  1.00  0.00     0.021 A 
ATOM     10  C   UNL     1       0.627   4.860  -3.316  1.00  0.00     0.021 A 
ATOM     11  C   UNL     1       0.114   5.717  -2.343  1.00  0.00     0.041 A 
ATOM     12  Cl  UNL     1       0.207   7.422  -2.562  1.00  0.00    -0.084 Cl
ENDBRANCH   1   6
BRANCH   1  13
ATOM     13  C   UNL     1      -1.383   0.859  -2.449  1.00  0.00    -0.036 A 
ATOM     14  C   UNL     1      -2.604   1.293  -2.016  1.00  0.00     0.006 A 
ATOM     15  C   UNL     1      -1.203  -0.087  -3.419  1.00  0.00     0.006 A 
ATOM     16  C   UNL     1      -3.740   0.735  -2.602  1.00  0.00     0.021 A 
ATOM     17  C   UNL     1      -2.339  -0.646  -4.004  1.00  0.00     0.021 A 
ATOM     18  C   UNL     1      -3.608  -0.235  -3.596  1.00  0.00     0.041 A 
ATOM     19  Cl  UNL     1      -5.010  -0.924  -4.318  1.00  0.00    -0.084 Cl
ENDBRANCH   1  13
TORSDOF 3
ENDMDL
MODEL 4
REMARK VINA RESULT:    -5.973      2.318      4.702
REMARK INTER + INTRA:          -7.645
REMARK INTER:                  -7.041
REMARK INTRA:                  -0.604
REMARK UNBOUND:                -0.624
REMARK SMILES Clc1ccc(C(c2ccc(Cl)cc2)C(Cl)(Cl)Cl)cc1
REMARK SMILES IDX 6 1 14 2 15 3 16 4 17 5 5 6 4 7 18 8 3 9 19 10 2 11 1 12
REMARK SMILES IDX 7 13 8 14 13 15 9 16 12 17 10 18 11 19
REMARK H PARENT
REMARK Flexibility Score: inf
ROOT
ATOM      1  C   UNL     1      -0.129   1.481  -1.835  1.00  0.00     0.101 C 
ENDROOT
BRANCH   1   2
ATOM      2  C   UNL     1       0.255   0.950  -0.390  1.00  0.00     0.201 C 
ATOM      3  Cl  UNL     1      -0.764   1.605   0.932  1.00  0.00    -0.083 Cl
ATOM      4  Cl  UNL     1       1.961   1.436  -0.006  1.00  0.00    -0.083 Cl
ATOM      5  Cl  UNL     1       0.220  -0.852  -0.293  1.00  0.00    -0.083 Cl
ENDBRANCH   1   2
BRANCH   1   6
ATOM      6  C   UNL     1      -0.051   2.958  -2.021  1.00  0.00    -0.036 A 
ATOM      7  C   UNL     1       0.511   3.485  -3.184  1.00  0.00     0.006 A 
ATOM      8  C   UNL     1      -0.538   3.813  -1.033  1.00  0.00     0.006 A 
ATOM      9  C   UNL     1       0.585   4.867  -3.359  1.00  0.00     0.021 A 
ATOM     10  C   UNL     1      -0.465   5.195  -1.207  1.00  0.00     0.021 A 
ATOM     11  C   UNL     1       0.097   5.722  -2.370  1.00  0.00     0.041 A 
ATOM     12  Cl  UNL     1       0.189   7.428  -2.585  1.00  0.00    -0.084 Cl
ENDBRANCH   1   6
BRANCH   1  13
ATOM     13  C   UNL     1      -1.393   0.861  -2.481  1.00  0.00    -0.036 A 
ATOM     14  C   UNL     1      -1.217  -0.085  -3.452  1.00  0.00     0.006 A 
ATOM     15  C   UNL     1      -2.613   1.296  -2.045  1.00  0.00     0.006 A 
ATOM     16  C   UNL     1      -2.355  -0.642  -4.035  1.00  0.00     0.021 A 
ATOM     17  C   UNL     1      -3.752   0.740  -2.629  1.00  0.00     0.021 A 
ATOM     18  C   UNL     1      -3.623  -0.230  -3.623  1.00  0.00     0.041 A 
ATOM     19  Cl  UNL     1      -5.027  -0.916  -4.343  1.00  0.00    -0.084 Cl
ENDBRANCH   1  13
TORSDOF 3
ENDMDL
MODEL 5
REMARK VINA RESULT:    -5.861      1.168      5.377
REMARK INTER + INTRA:          -7.513
REMARK INTER:                  -6.854
REMARK INTRA:                  -0.659
REMARK UNBOUND:                -0.624
REMARK SMILES Clc1ccc(C(c2ccc(Cl)cc2)C(Cl)(Cl)Cl)cc1
REMARK SMILES IDX 6 1 14 2 15 3 16 4 17 5 5 6 4 7 18 8 3 9 19 10 2 11 1 12
REMARK SMILES IDX 7 13 8 14 13 15 9 16 12 17 10 18 11 19
REMARK H PARENT
REMARK Flexibility Score: inf
ROOT
ATOM      1  C   UNL     1      -0.762   2.799  -2.471  1.00  0.00     0.101 C 
ENDROOT
BRANCH   1   2
ATOM      2  C   UNL     1      -1.807   1.840  -3.181  1.00  0.00     0.201 C 
ATOM      3  Cl  UNL     1      -3.150   1.300  -2.122  1.00  0.00    -0.083 Cl
ATOM      4  Cl  UNL     1      -0.959   0.335  -3.737  1.00  0.00    -0.083 Cl
ATOM      5  Cl  UNL     1      -2.519   2.584  -4.663  1.00  0.00    -0.083 Cl
ENDBRANCH   1   2
BRANCH   1   6
ATOM      6  C   UNL     1       0.007   2.195  -1.344  1.00  0.00    -0.036 A 
ATOM      7  C   UNL     1       1.400   2.180  -1.380  1.00  0.00     0.006 A 
ATOM      8  C   UNL     1      -0.669   1.644  -0.255  1.00  0.00     0.006 A 
ATOM      9  C   UNL     1       2.119   1.615  -0.327  1.00  0.00     0.021 A 
ATOM     10  C   UNL     1       0.049   1.079   0.798  1.00  0.00     0.021 A 
ATOM     11  C   UNL     1       1.443   1.064   0.763  1.00  0.00     0.041 A 
ATOM     12  Cl  UNL     1       2.330   0.366   2.062  1.00  0.00    -0.084 Cl
ENDBRANCH   1   6
BRANCH   1  13
ATOM     13  C   UNL     1      -1.247   4.238  -2.163  1.00  0.00    -0.036 A 
ATOM     14  C   UNL     1      -0.486   5.280  -2.613  1.00  0.00     0.006 A 
ATOM     15  C   UNL     1      -2.408   4.383  -1.456  1.00  0.00     0.006 A 
ATOM     16  C   UNL     1      -0.923   6.575  -2.334  1.00  0.00     0.021 A 
ATOM     17  C   UNL     1      -2.844   5.678  -1.176  1.00  0.00     0.021 A 
ATOM     18  C   UNL     1      -2.102   6.774  -1.616  1.00  0.00     0.041 A 
ATOM     19  Cl  UNL     1      -2.641   8.372  -1.271  1.00  0.00    -0.084 Cl
ENDBRANCH   1  13
TORSDOF 3
ENDMDL
