MODEL 1
REMARK VINA RESULT:    -6.208      0.000      0.000
REMARK INTER + INTRA:          -7.925
REMARK INTER:                  -7.297
REMARK INTRA:                  -0.627
REMARK UNBOUND:                -0.627
REMARK SMILES Clc1ccc(C(c2ccc(Cl)cc2)C(Cl)(Cl)Cl)cc1
REMARK SMILES IDX 6 1 14 2 15 3 16 4 17 5 5 6 4 7 18 8 3 9 19 10 2 11 1 12
REMARK SMILES IDX 7 13 8 14 13 15 9 16 12 17 10 18 11 19
REMARK H PARENT
REMARK Flexibility Score: inf
ROOT
ATOM      1  C   UNL     1      -1.296   1.981  -1.177  1.00  0.00     0.101 C 
ENDROOT
BRANCH   1   2
ATOM      2  C   UNL     1      -1.713   1.133  -2.451  1.00  0.00     0.201 C 
ATOM      3  Cl  UNL     1      -1.034   1.739  -3.996  1.00  0.00    -0.083 Cl
ATOM      4  Cl  UNL     1      -3.518   1.177  -2.636  1.00  0.00    -0.083 Cl
ATOM      5  Cl  UNL     1      -1.275  -0.609  -2.285  1.00  0.00    -0.083 Cl
ENDBRANCH   1   2
BRANCH   1   6
ATOM      6  C   UNL     1      -1.706   3.415  -1.194  1.00  0.00    -0.036 A 
ATOM      7  C   UNL     1      -2.223   4.005  -0.041  1.00  0.00     0.006 A 
ATOM      8  C   UNL     1      -1.574   4.165  -2.363  1.00  0.00     0.006 A 
ATOM      9  C   UNL     1      -2.608   5.346  -0.056  1.00  0.00     0.021 A 
ATOM     10  C   UNL     1      -1.958   5.506  -2.378  1.00  0.00     0.021 A 
ATOM     11  C   UNL     1      -2.476   6.096  -1.225  1.00  0.00     0.041 A 
ATOM     12  Cl  UNL     1      -2.951   7.751  -1.245  1.00  0.00    -0.084 Cl
ENDBRANCH   1   6
BRANCH   1  13
ATOM     13  C   UNL     1       0.150   1.777  -0.659  1.00  0.00    -0.036 A 
ATOM     14  C   UNL     1       0.319   1.097   0.514  1.00  0.00     0.006 A 
ATOM     15  C   UNL     1       1.174   2.291  -1.404  1.00  0.00     0.006 A 
ATOM     16  C   UNL     1       1.620   0.915   0.981  1.00  0.00     0.021 A 
ATOM     17  C   UNL     1       2.476   2.110  -0.936  1.00  0.00     0.021 A 
ATOM     18  C   UNL     1       2.699   1.421   0.256  1.00  0.00     0.041 A 
ATOM     19  Cl  UNL     1       4.305   1.198   0.833  1.00  0.00    -0.084 Cl
ENDBRANCH   1  13
TORSDOF 3
ENDMDL
MODEL 2
REMARK VINA RESULT:    -6.196      0.059      1.568
REMARK INTER + INTRA:          -7.910
REMARK INTER:                  -7.290
REMARK INTRA:                  -0.620
REMARK UNBOUND:                -0.627
REMARK SMILES Clc1ccc(C(c2ccc(Cl)cc2)C(Cl)(Cl)Cl)cc1
REMARK SMILES IDX 6 1 14 2 15 3 16 4 17 5 5 6 4 7 18 8 3 9 19 10 2 11 1 12
REMARK SMILES IDX 7 13 8 14 13 15 9 16 12 17 10 18 11 19
REMARK H PARENT
REMARK Flexibility Score: inf
ROOT
ATOM      1  C   UNL     1      -1.324   1.947  -1.162  1.00  0.00     0.101 C 
ENDROOT
BRANCH   1   2
ATOM      2  C   UNL     1      -1.735   1.098  -2.437  1.00  0.00     0.201 C 
ATOM      3  Cl  UNL     1      -1.078   1.724  -3.983  1.00  0.00    -0.083 Cl
ATOM      4  Cl  UNL     1      -3.541   1.111  -2.609  1.00  0.00    -0.083 Cl
ATOM      5  Cl  UNL     1      -1.264  -0.637  -2.283  1.00  0.00    -0.083 Cl
ENDBRANCH   1   2
BRANCH   1   6
ATOM      6  C   UNL     1      -1.743   3.378  -1.176  1.00  0.00    -0.036 A 
ATOM      7  C   UNL     1      -1.673   4.113  -2.360  1.00  0.00     0.006 A 
ATOM      8  C   UNL     1      -2.203   3.983  -0.006  1.00  0.00     0.006 A 
ATOM      9  C   UNL     1      -2.064   5.452  -2.374  1.00  0.00     0.021 A 
ATOM     10  C   UNL     1      -2.595   5.321  -0.020  1.00  0.00     0.021 A 
ATOM     11  C   UNL     1      -2.525   6.056  -1.203  1.00  0.00     0.041 A 
ATOM     12  Cl  UNL     1      -3.007   7.709  -1.220  1.00  0.00    -0.084 Cl
ENDBRANCH   1   6
BRANCH   1  13
ATOM     13  C   UNL     1       0.123   1.751  -0.642  1.00  0.00    -0.036 A 
ATOM     14  C   UNL     1       1.146   2.262  -1.391  1.00  0.00     0.006 A 
ATOM     15  C   UNL     1       0.294   1.078   0.535  1.00  0.00     0.006 A 
ATOM     16  C   UNL     1       2.448   2.084  -0.924  1.00  0.00     0.021 A 
ATOM     17  C   UNL     1       1.596   0.899   1.001  1.00  0.00     0.021 A 
ATOM     18  C   UNL     1       2.673   1.403   0.272  1.00  0.00     0.041 A 
ATOM     19  Cl  UNL     1       4.280   1.183   0.848  1.00  0.00    -0.084 Cl
ENDBRANCH   1  13
TORSDOF 3
ENDMDL
MODEL 3
REMARK VINA RESULT:    -5.966      2.314      4.879
REMARK INTER + INTRA:          -7.639
REMARK INTER:                  -7.034
REMARK INTRA:                  -0.606
REMARK UNBOUND:                -0.627
REMARK SMILES Clc1ccc(C(c2ccc(Cl)cc2)C(Cl)(Cl)Cl)cc1
REMARK SMILES IDX 6 1 14 2 15 3 16 4 17 5 5 6 4 7 18 8 3 9 19 10 2 11 1 12
REMARK SMILES IDX 7 13 8 14 13 15 9 16 12 17 10 18 11 19
REMARK H PARENT
REMARK Flexibility Score: inf
ROOT
ATOM      1  C   UNL     1      -0.153   1.476  -1.817  1.00  0.00     0.101 C 
ENDROOT
BRANCH   1   2
ATOM      2  C   UNL     1       0.240   0.946  -0.375  1.00  0.00     0.201 C 
ATOM      3  Cl  UNL     1      -0.781   1.589   0.952  1.00  0.00    -0.083 Cl
ATOM      4  Cl  UNL     1       1.942   1.446   0.005  1.00  0.00    -0.083 Cl
ATOM      5  Cl  UNL     1       0.220  -0.856  -0.281  1.00  0.00    -0.083 Cl
ENDBRANCH   1   2
BRANCH   1   6
ATOM      6  C   UNL     1      -0.067   2.953  -2.007  1.00  0.00    -0.036 A 
ATOM      7  C   UNL     1       0.507   3.474  -3.167  1.00  0.00     0.006 A 
ATOM      8  C   UNL     1      -0.558   3.813  -1.025  1.00  0.00     0.006 A 
ATOM      9  C   UNL     1       0.589   4.855  -3.344  1.00  0.00     0.021 A 
ATOM     10  C   UNL     1      -0.477   5.194  -1.203  1.00  0.00     0.021 A 
ATOM     11  C   UNL     1       0.096   5.715  -2.362  1.00  0.00     0.041 A 
ATOM     12  Cl  UNL     1       0.198   7.419  -2.581  1.00  0.00    -0.084 Cl
ENDBRANCH   1   6
BRANCH   1  13
ATOM     13  C   UNL     1      -1.426   0.863  -2.452  1.00  0.00    -0.036 A 
ATOM     14  C   UNL     1      -1.264  -0.085  -3.423  1.00  0.00     0.006 A 
ATOM     15  C   UNL     1      -2.640   1.306  -2.005  1.00  0.00     0.006 A 
ATOM     16  C   UNL     1      -2.411  -0.635  -3.996  1.00  0.00     0.021 A 
ATOM     17  C   UNL     1      -3.787   0.756  -2.579  1.00  0.00     0.021 A 
ATOM     18  C   UNL     1      -3.672  -0.215  -3.573  1.00  0.00     0.041 A 
ATOM     19  Cl  UNL     1      -5.088  -0.893  -4.280  1.00  0.00    -0.084 Cl
ENDBRANCH   1  13
TORSDOF 3
ENDMDL
MODEL 4
REMARK VINA RESULT:    -5.867      2.903      3.884
REMARK INTER + INTRA:          -7.523
REMARK INTER:                  -6.888
REMARK INTRA:                  -0.635
REMARK UNBOUND:                -0.627
REMARK SMILES Clc1ccc(C(c2ccc(Cl)cc2)C(Cl)(Cl)Cl)cc1
REMARK SMILES IDX 6 1 14 2 15 3 16 4 17 5 5 6 4 7 18 8 3 9 19 10 2 11 1 12
REMARK SMILES IDX 7 13 8 14 13 15 9 16 12 17 10 18 11 19
REMARK H PARENT
REMARK Flexibility Score: inf
ROOT
ATOM      1  C   UNL     1      -2.108   4.743  -1.742  1.00  0.00     0.101 C 
ENDROOT
BRANCH   1   2
ATOM      2  C   UNL     1      -3.120   3.522  -1.736  1.00  0.00     0.201 C 
ATOM      3  Cl  UNL     1      -4.741   3.909  -1.073  1.00  0.00    -0.083 Cl
ATOM      4  Cl  UNL     1      -2.451   2.192  -0.698  1.00  0.00    -0.083 Cl
ATOM      5  Cl  UNL     1      -3.338   2.806  -3.378  1.00  0.00    -0.083 Cl
ENDBRANCH   1   2
BRANCH   1   6
ATOM      6  C   UNL     1      -2.709   6.078  -2.025  1.00  0.00    -0.036 A 
ATOM      7  C   UNL     1      -2.276   7.200  -1.320  1.00  0.00     0.006 A 
ATOM      8  C   UNL     1      -3.705   6.204  -2.994  1.00  0.00     0.006 A 
ATOM      9  C   UNL     1      -2.839   8.450  -1.584  1.00  0.00     0.021 A 
ATOM     10  C   UNL     1      -4.267   7.452  -3.258  1.00  0.00     0.021 A 
ATOM     11  C   UNL     1      -3.835   8.575  -2.553  1.00  0.00     0.041 A 
ATOM     12  Cl  UNL     1      -4.529  10.116  -2.879  1.00  0.00    -0.084 Cl
ENDBRANCH   1   6
BRANCH   1  13
ATOM     13  C   UNL     1      -0.766   4.520  -2.484  1.00  0.00    -0.036 A 
ATOM     14  C   UNL     1       0.288   4.029  -1.765  1.00  0.00     0.006 A 
ATOM     15  C   UNL     1      -0.712   4.828  -3.814  1.00  0.00     0.006 A 
ATOM     16  C   UNL     1       1.496   3.831  -2.433  1.00  0.00     0.021 A 
ATOM     17  C   UNL     1       0.496   4.629  -4.482  1.00  0.00     0.021 A 
ATOM     18  C   UNL     1       1.601   4.130  -3.791  1.00  0.00     0.041 A 
ATOM     19  Cl  UNL     1       3.092   3.885  -4.616  1.00  0.00    -0.084 Cl
ENDBRANCH   1  13
TORSDOF 3
ENDMDL
MODEL 5
REMARK VINA RESULT:    -5.857      2.346      5.936
REMARK INTER + INTRA:          -7.512
REMARK INTER:                  -7.056
REMARK INTRA:                  -0.456
REMARK UNBOUND:                -0.627
REMARK SMILES Clc1ccc(C(c2ccc(Cl)cc2)C(Cl)(Cl)Cl)cc1
REMARK SMILES IDX 6 1 14 2 15 3 16 4 17 5 5 6 4 7 18 8 3 9 19 10 2 11 1 12
REMARK SMILES IDX 7 13 8 14 13 15 9 16 12 17 10 18 11 19
REMARK H PARENT
REMARK Flexibility Score: inf
ROOT
ATOM      1  C   UNL     1      -2.886   1.594  -3.298  1.00  0.00     0.101 C 
ENDROOT
BRANCH   1   2
ATOM      2  C   UNL     1      -3.874   0.398  -3.630  1.00  0.00     0.201 C 
ATOM      3  Cl  UNL     1      -3.121  -0.951  -4.541  1.00  0.00    -0.083 Cl
ATOM      4  Cl  UNL     1      -5.234   1.013  -4.663  1.00  0.00    -0.083 Cl
ATOM      5  Cl  UNL     1      -4.646  -0.281  -2.148  1.00  0.00    -0.083 Cl
ENDBRANCH   1   2
BRANCH   1   6
ATOM      6  C   UNL     1      -1.869   1.316  -2.243  1.00  0.00    -0.036 A 
ATOM      7  C   UNL     1      -1.192   0.097  -2.231  1.00  0.00     0.006 A 
ATOM      8  C   UNL     1      -1.595   2.276  -1.268  1.00  0.00     0.006 A 
ATOM      9  C   UNL     1      -0.241  -0.163  -1.244  1.00  0.00     0.021 A 
ATOM     10  C   UNL     1      -0.644   2.016  -0.282  1.00  0.00     0.021 A 
ATOM     11  C   UNL     1       0.032   0.797  -0.269  1.00  0.00     0.041 A 
ATOM     12  Cl  UNL     1       1.205   0.476   0.950  1.00  0.00    -0.084 Cl
ENDBRANCH   1   6
BRANCH   1  13
ATOM     13  C   UNL     1      -3.527   2.997  -3.159  1.00  0.00    -0.036 A 
ATOM     14  C   UNL     1      -4.438   3.188  -2.158  1.00  0.00     0.006 A 
ATOM     15  C   UNL     1      -3.146   3.965  -4.046  1.00  0.00     0.006 A 
ATOM     16  C   UNL     1      -5.016   4.451  -2.034  1.00  0.00     0.021 A 
ATOM     17  C   UNL     1      -3.724   5.228  -3.922  1.00  0.00     0.021 A 
ATOM     18  C   UNL     1      -4.659   5.472  -2.915  1.00  0.00     0.041 A 
ATOM     19  Cl  UNL     1      -5.373   7.031  -2.763  1.00  0.00    -0.084 Cl
ENDBRANCH   1  13
TORSDOF 3
ENDMDL
