MODEL 1
REMARK VINA RESULT:    -7.522      0.000      0.000
REMARK INTER + INTRA:         -11.716
REMARK INTER:                 -11.040
REMARK INTRA:                  -0.676
REMARK UNBOUND:                -0.676
REMARK SMILES CC1(C)C(C=C(Br)Br)C1C(=O)OC(C#N)c1cccc(Oc2ccccc2)c1
REMARK SMILES IDX 13 1 12 2 10 3 11 4 9 5 4 6 2 7 1 8 3 9 5 10 7 11 6 12 8 13
REMARK SMILES IDX 16 14 28 15 17 16 20 17 18 18 19 19 21 20 22 21 23 22 27 23
REMARK SMILES IDX 24 24 26 25 25 26 14 27 15 28
REMARK H PARENT
REMARK Flexibility Score: inf
ROOT
ATOM      1  C   UNL     1      -3.777   1.079  -3.939  1.00  0.00     0.309 C
ENDROOT
BRANCH   1   2
ATOM      2  O   UNL     1      -4.300   2.221  -3.247  1.00  0.00    -0.442 OA
BRANCH   2   3
ATOM      3  C   UNL     1      -4.234   3.395  -3.930  1.00  0.00     0.311 C
ATOM      4  O   UNL     1      -3.330   3.771  -4.663  1.00  0.00    -0.252 OA
BRANCH   3   5
ATOM      5  C   UNL     1      -5.437   4.231  -3.686  1.00  0.00     0.113 C
ATOM      6  C   UNL     1      -5.248   5.590  -3.092  1.00  0.00     0.035 C
ATOM      7  C   UNL     1      -5.892   4.499  -2.287  1.00  0.00    -0.014 C
ATOM      8  C   UNL     1      -5.112   3.943  -1.143  1.00  0.00     0.012 C
ATOM      9  C   UNL     1      -7.364   4.527  -2.047  1.00  0.00     0.012 C
BRANCH   6  10
ATOM     10  C   UNL     1      -3.895   6.031  -2.790  1.00  0.00     0.001 C
ATOM     11  Br  UNL     1      -4.555   8.796  -2.779  1.00  0.00    -0.043 Br
ATOM     12  C   UNL     1      -3.453   7.290  -2.633  1.00  0.00     0.057 C
ATOM     13  Br  UNL     1      -1.652   7.642  -2.243  1.00  0.00    -0.043 Br
ENDBRANCH   6  10
ENDBRANCH   3   5
ENDBRANCH   2   3
ENDBRANCH   1   2
BRANCH   1  14
ATOM     14  C   UNL     1      -2.657   0.480  -3.159  1.00  0.00     0.011 A
ATOM     15  C   UNL     1      -2.163   1.137  -2.031  1.00  0.00     0.055 A
ATOM     16  C   UNL     1      -2.105  -0.738  -3.554  1.00  0.00     0.009 A
ATOM     17  C   UNL     1      -1.116   0.576  -1.301  1.00  0.00     0.127 A
ATOM     18  C   UNL     1      -1.057  -1.299  -2.823  1.00  0.00     0.004 A
ATOM     19  C   UNL     1      -0.562  -0.642  -1.696  1.00  0.00     0.047 A
BRANCH  17  20
ATOM     20  O   UNL     1      -0.632   1.216  -0.201  1.00  0.00    -0.457 OA
BRANCH  20  21
ATOM     21  C   UNL     1       0.740   1.381  -0.104  1.00  0.00     0.127 A
ATOM     22  C   UNL     1       1.398   0.899   1.013  1.00  0.00     0.047 A
ATOM     23  C   UNL     1       1.416   2.023  -1.126  1.00  0.00     0.047 A
ATOM     24  C   UNL     1       2.780   1.065   1.111  1.00  0.00     0.004 A
ATOM     25  C   UNL     1       2.796   2.189  -1.028  1.00  0.00     0.004 A
ATOM     26  C   UNL     1       3.480   1.710   0.090  1.00  0.00     0.000 A
ENDBRANCH  20  21
ENDBRANCH  17  20
ENDBRANCH   1  14
BRANCH   1  27
ATOM     27  C   UNL     1      -4.869   0.118  -4.194  1.00  0.00     0.113 C
ATOM     28  N   UNL     1      -5.722  -0.641  -4.402  1.00  0.00    -0.194 NA
ENDBRANCH   1  27
TORSDOF 8
ENDMDL
MODEL 2
REMARK VINA RESULT:    -7.455      3.008      6.474
REMARK INTER + INTRA:         -11.617
REMARK INTER:                 -10.128
REMARK INTRA:                  -1.489
REMARK UNBOUND:                -0.676
REMARK SMILES CC1(C)C(C=C(Br)Br)C1C(=O)OC(C#N)c1cccc(Oc2ccccc2)c1
REMARK SMILES IDX 13 1 12 2 10 3 11 4 9 5 4 6 2 7 1 8 3 9 5 10 7 11 6 12 8 13
REMARK SMILES IDX 16 14 28 15 17 16 20 17 18 18 19 19 21 20 22 21 23 22 27 23
REMARK SMILES IDX 24 24 26 25 25 26 14 27 15 28
REMARK H PARENT
REMARK Flexibility Score: inf
ROOT
ATOM      1  C   UNL     1      -4.442   1.575  -2.785  1.00  0.00     0.309 C
ENDROOT
BRANCH   1   2
ATOM      2  O   UNL     1      -3.110   1.750  -3.288  1.00  0.00    -0.442 OA
BRANCH   2   3
ATOM      3  C   UNL     1      -2.114   1.436  -2.417  1.00  0.00     0.311 C
ATOM      4  O   UNL     1      -1.795   0.319  -2.034  1.00  0.00    -0.252 OA
BRANCH   3   5
ATOM      5  C   UNL     1      -1.406   2.653  -1.942  1.00  0.00     0.113 C
ATOM      6  C   UNL     1      -0.550   2.545  -0.721  1.00  0.00     0.035 C
ATOM      7  C   UNL     1      -1.833   3.322  -0.675  1.00  0.00    -0.014 C
ATOM      8  C   UNL     1      -2.956   2.742   0.118  1.00  0.00     0.012 C
ATOM      9  C   UNL     1      -1.795   4.814  -0.650  1.00  0.00     0.012 C
BRANCH   6  10
ATOM     10  C   UNL     1      -0.446   1.252  -0.062  1.00  0.00     0.001 C
ATOM     11  Br  UNL     1       2.385   1.348   0.176  1.00  0.00    -0.043 Br
ATOM     12  C   UNL     1       0.667   0.629   0.362  1.00  0.00     0.057 C
ATOM     13  Br  UNL     1       0.579  -1.049   1.196  1.00  0.00    -0.043 Br
ENDBRANCH   6  10
ENDBRANCH   3   5
ENDBRANCH   2   3
ENDBRANCH   1   2
BRANCH   1  14
ATOM     14  C   UNL     1      -5.158   2.882  -2.775  1.00  0.00     0.011 A
ATOM     15  C   UNL     1      -4.614   3.981  -3.441  1.00  0.00     0.055 A
ATOM     16  C   UNL     1      -6.373   3.006  -2.102  1.00  0.00     0.009 A
ATOM     17  C   UNL     1      -5.285   5.204  -3.431  1.00  0.00     0.127 A
ATOM     18  C   UNL     1      -7.044   4.230  -2.093  1.00  0.00     0.004 A
ATOM     19  C   UNL     1      -6.499   5.328  -2.757  1.00  0.00     0.047 A
BRANCH  17  20
ATOM     20  O   UNL     1      -4.754   6.277  -4.080  1.00  0.00    -0.457 OA
BRANCH  20  21
ATOM     21  C   UNL     1      -3.626   6.866  -3.532  1.00  0.00     0.127 A
ATOM     22  C   UNL     1      -3.752   7.614  -2.376  1.00  0.00     0.047 A
ATOM     23  C   UNL     1      -2.404   6.691  -4.156  1.00  0.00     0.047 A
ATOM     24  C   UNL     1      -2.616   8.209  -1.824  1.00  0.00     0.004 A
ATOM     25  C   UNL     1      -1.269   7.285  -3.604  1.00  0.00     0.004 A
ATOM     26  C   UNL     1      -1.375   8.043  -2.438  1.00  0.00     0.000 A
ENDBRANCH  20  21
ENDBRANCH  17  20
ENDBRANCH   1  14
BRANCH   1  27
ATOM     27  C   UNL     1      -5.138   0.552  -3.592  1.00  0.00     0.113 C
ATOM     28  N   UNL     1      -5.695  -0.249  -4.221  1.00  0.00    -0.194 NA
ENDBRANCH   1  27
TORSDOF 8
ENDMDL
MODEL 3
REMARK VINA RESULT:    -7.229      2.903      5.453
REMARK INTER + INTRA:         -11.285
REMARK INTER:                 -10.711
REMARK INTRA:                  -0.574
REMARK UNBOUND:                -0.676
REMARK SMILES CC1(C)C(C=C(Br)Br)C1C(=O)OC(C#N)c1cccc(Oc2ccccc2)c1
REMARK SMILES IDX 13 1 12 2 10 3 11 4 9 5 4 6 2 7 1 8 3 9 5 10 7 11 6 12 8 13
REMARK SMILES IDX 16 14 28 15 17 16 20 17 18 18 19 19 21 20 22 21 23 22 27 23
REMARK SMILES IDX 24 24 26 25 25 26 14 27 15 28
REMARK H PARENT
REMARK Flexibility Score: inf
ROOT
ATOM      1  C   UNL     1       0.635   3.461  -2.335  1.00  0.00     0.309 C
ENDROOT
BRANCH   1   2
ATOM      2  O   UNL     1      -0.566   4.073  -2.825  1.00  0.00    -0.442 OA
BRANCH   2   3
ATOM      3  C   UNL     1      -1.355   4.645  -1.877  1.00  0.00     0.311 C
ATOM      4  O   UNL     1      -2.327   4.146  -1.327  1.00  0.00    -0.252 OA
BRANCH   3   5
ATOM      5  C   UNL     1      -0.900   6.022  -1.553  1.00  0.00     0.113 C
ATOM      6  C   UNL     1      -1.900   7.132  -1.610  1.00  0.00     0.035 C
ATOM      7  C   UNL     1      -0.804   7.052  -2.632  1.00  0.00    -0.014 C
ATOM      8  C   UNL     1      -1.194   6.693  -4.027  1.00  0.00     0.012 C
ATOM      9  C   UNL     1       0.345   8.003  -2.560  1.00  0.00     0.012 C
BRANCH   6  10
ATOM     10  C   UNL     1      -3.272   6.809  -1.972  1.00  0.00     0.001 C
ATOM     11  Br  UNL     1      -3.932   9.463  -2.746  1.00  0.00    -0.043 Br
ATOM     12  C   UNL     1      -4.218   7.638  -2.445  1.00  0.00     0.057 C
ATOM     13  Br  UNL     1      -5.938   7.011  -2.852  1.00  0.00    -0.043 Br
ENDBRANCH   6  10
ENDBRANCH   3   5
ENDBRANCH   2   3
ENDBRANCH   1   2
BRANCH   1  14
ATOM     14  C   UNL     1       0.334   2.101  -1.805  1.00  0.00     0.011 A
ATOM     15  C   UNL     1      -0.435   1.213  -2.558  1.00  0.00     0.055 A
ATOM     16  C   UNL     1       0.822   1.715  -0.557  1.00  0.00     0.009 A
ATOM     17  C   UNL     1      -0.717  -0.059  -2.063  1.00  0.00     0.127 A
ATOM     18  C   UNL     1       0.540   0.442  -0.062  1.00  0.00     0.004 A
ATOM     19  C   UNL     1      -0.229  -0.445  -0.814  1.00  0.00     0.047 A
BRANCH  17  20
ATOM     20  O   UNL     1      -1.468  -0.926  -2.797  1.00  0.00    -0.457 OA
BRANCH  20  21
ATOM     21  C   UNL     1      -2.753  -0.535  -3.135  1.00  0.00     0.127 A
ATOM     22  C   UNL     1      -3.303  -0.986  -4.321  1.00  0.00     0.047 A
ATOM     23  C   UNL     1      -3.453   0.296  -2.279  1.00  0.00     0.047 A
ATOM     24  C   UNL     1      -4.598  -0.593  -4.663  1.00  0.00     0.004 A
ATOM     25  C   UNL     1      -4.746   0.690  -2.621  1.00  0.00     0.004 A
ATOM     26  C   UNL     1      -5.319   0.245  -3.812  1.00  0.00     0.000 A
ENDBRANCH  20  21
ENDBRANCH  17  20
ENDBRANCH   1  14
BRANCH   1  27
ATOM     27  C   UNL     1       1.648   3.441  -3.410  1.00  0.00     0.113 C
ATOM     28  N   UNL     1       2.440   3.415  -4.258  1.00  0.00    -0.194 NA
ENDBRANCH   1  27
TORSDOF 8
ENDMDL
MODEL 4
REMARK VINA RESULT:    -7.191      3.373      7.877
REMARK INTER + INTRA:         -11.230
REMARK INTER:                 -10.390
REMARK INTRA:                  -0.840
REMARK UNBOUND:                -0.676
REMARK SMILES CC1(C)C(C=C(Br)Br)C1C(=O)OC(C#N)c1cccc(Oc2ccccc2)c1
REMARK SMILES IDX 13 1 12 2 10 3 11 4 9 5 4 6 2 7 1 8 3 9 5 10 7 11 6 12 8 13
REMARK SMILES IDX 16 14 28 15 17 16 20 17 18 18 19 19 21 20 22 21 23 22 27 23
REMARK SMILES IDX 24 24 26 25 25 26 14 27 15 28
REMARK H PARENT
REMARK Flexibility Score: inf
ROOT
ATOM      1  C   UNL     1      -4.475   1.746  -2.627  1.00  0.00     0.309 C
ENDROOT
BRANCH   1   2
ATOM      2  O   UNL     1      -3.170   1.953  -3.183  1.00  0.00    -0.442 OA
BRANCH   2   3
ATOM      3  C   UNL     1      -2.136   1.502  -2.423  1.00  0.00     0.311 C
ATOM      4  O   UNL     1      -1.961   0.361  -2.020  1.00  0.00    -0.252 OA
BRANCH   3   5
ATOM      5  C   UNL     1      -1.178   2.594  -2.109  1.00  0.00     0.113 C
ATOM      6  C   UNL     1      -0.207   2.385  -0.991  1.00  0.00     0.035 C
ATOM      7  C   UNL     1      -1.324   3.375  -0.842  1.00  0.00    -0.014 C
ATOM      8  C   UNL     1      -2.421   3.031   0.110  1.00  0.00     0.012 C
ATOM      9  C   UNL     1      -1.032   4.837  -0.911  1.00  0.00     0.012 C
BRANCH   6  10
ATOM     10  C   UNL     1      -0.240   1.120  -0.273  1.00  0.00     0.001 C
ATOM     11  Br  UNL     1       2.486   1.241   0.524  1.00  0.00    -0.043 Br
ATOM     12  C   UNL     1       0.763   0.521   0.390  1.00  0.00     0.057 C
ATOM     13  Br  UNL     1       0.505  -1.123   1.256  1.00  0.00    -0.043 Br
ENDBRANCH   6  10
ENDBRANCH   3   5
ENDBRANCH   2   3
ENDBRANCH   1   2
BRANCH   1  14
ATOM     14  C   UNL     1      -5.215   3.039  -2.571  1.00  0.00     0.011 A
ATOM     15  C   UNL     1      -6.602   3.044  -2.417  1.00  0.00     0.055 A
ATOM     16  C   UNL     1      -4.521   4.245  -2.671  1.00  0.00     0.009 A
ATOM     17  C   UNL     1      -7.293   4.254  -2.364  1.00  0.00     0.127 A
ATOM     18  C   UNL     1      -5.213   5.455  -2.618  1.00  0.00     0.004 A
ATOM     19  C   UNL     1      -6.599   5.459  -2.465  1.00  0.00     0.047 A
BRANCH  17  20
ATOM     20  O   UNL     1      -8.647   4.259  -2.215  1.00  0.00    -0.457 OA
BRANCH  20  21
ATOM     21  C   UNL     1      -9.152   4.282  -0.926  1.00  0.00     0.127 A
ATOM     22  C   UNL     1      -9.856   3.187  -0.459  1.00  0.00     0.047 A
ATOM     23  C   UNL     1      -8.939   5.399  -0.138  1.00  0.00     0.047 A
ATOM     24  C   UNL     1     -10.365   3.209   0.840  1.00  0.00     0.004 A
ATOM     25  C   UNL     1      -9.448   5.421   1.160  1.00  0.00     0.004 A
ATOM     26  C   UNL     1     -10.160   4.326   1.650  1.00  0.00     0.000 A
ENDBRANCH  20  21
ENDBRANCH  17  20
ENDBRANCH   1  14
BRANCH   1  27
ATOM     27  C   UNL     1      -5.186   0.719  -3.415  1.00  0.00     0.113 C
ATOM     28  N   UNL     1      -5.735  -0.095  -4.034  1.00  0.00    -0.194 NA
ENDBRANCH   1  27
TORSDOF 8
ENDMDL
MODEL 5
REMARK VINA RESULT:    -7.094      2.211      6.177
REMARK INTER + INTRA:         -11.087
REMARK INTER:                  -9.484
REMARK INTRA:                  -1.603
REMARK UNBOUND:                -0.676
REMARK SMILES CC1(C)C(C=C(Br)Br)C1C(=O)OC(C#N)c1cccc(Oc2ccccc2)c1
REMARK SMILES IDX 13 1 12 2 10 3 11 4 9 5 4 6 2 7 1 8 3 9 5 10 7 11 6 12 8 13
REMARK SMILES IDX 16 14 28 15 17 16 20 17 18 18 19 19 21 20 22 21 23 22 27 23
REMARK SMILES IDX 24 24 26 25 25 26 14 27 15 28
REMARK H PARENT
REMARK Flexibility Score: inf
ROOT
ATOM      1  C   UNL     1      -4.627   1.166  -3.000  1.00  0.00     0.309 C
ENDROOT
BRANCH   1   2
ATOM      2  O   UNL     1      -3.270   1.300  -3.447  1.00  0.00    -0.442 OA
BRANCH   2   3
ATOM      3  C   UNL     1      -2.325   0.864  -2.572  1.00  0.00     0.311 C
ATOM      4  O   UNL     1      -1.580  -0.096  -2.711  1.00  0.00    -0.252 OA
BRANCH   3   5
ATOM      5  C   UNL     1      -2.278   1.715  -1.356  1.00  0.00     0.113 C
ATOM      6  C   UNL     1      -1.569   3.029  -1.436  1.00  0.00     0.035 C
ATOM      7  C   UNL     1      -0.986   1.909  -0.627  1.00  0.00    -0.014 C
ATOM      8  C   UNL     1       0.254   1.262  -1.148  1.00  0.00     0.012 C
ATOM      9  C   UNL     1      -1.051   1.960   0.863  1.00  0.00     0.012 C
BRANCH   6  10
ATOM     10  C   UNL     1      -0.969   3.415  -2.704  1.00  0.00     0.001 C
ATOM     11  Br  UNL     1       0.610   5.496  -1.584  1.00  0.00    -0.043 Br
ATOM     12  C   UNL     1      -0.073   4.390  -2.931  1.00  0.00     0.057 C
ATOM     13  Br  UNL     1       0.579   4.724  -4.658  1.00  0.00    -0.043 Br
ENDBRANCH   6  10
ENDBRANCH   3   5
ENDBRANCH   2   3
ENDBRANCH   1   2
BRANCH   1  14
ATOM     14  C   UNL     1      -5.278   2.505  -2.943  1.00  0.00     0.011 A
ATOM     15  C   UNL     1      -4.643   3.615  -3.503  1.00  0.00     0.055 A
ATOM     16  C   UNL     1      -6.523   2.650  -2.331  1.00  0.00     0.009 A
ATOM     17  C   UNL     1      -5.253   4.868  -3.449  1.00  0.00     0.127 A
ATOM     18  C   UNL     1      -7.133   3.903  -2.278  1.00  0.00     0.004 A
ATOM     19  C   UNL     1      -6.498   5.012  -2.836  1.00  0.00     0.047 A
BRANCH  17  20
ATOM     20  O   UNL     1      -4.634   5.951  -3.994  1.00  0.00    -0.457 OA
BRANCH  20  21
ATOM     21  C   UNL     1      -4.097   6.889  -3.127  1.00  0.00     0.127 A
ATOM     22  C   UNL     1      -4.601   8.176  -3.132  1.00  0.00     0.047 A
ATOM     23  C   UNL     1      -3.071   6.513  -2.280  1.00  0.00     0.047 A
ATOM     24  C   UNL     1      -4.061   9.122  -2.259  1.00  0.00     0.004 A
ATOM     25  C   UNL     1      -2.530   7.457  -1.408  1.00  0.00     0.004 A
ATOM     26  C   UNL     1      -3.025   8.761  -1.397  1.00  0.00     0.000 A
ENDBRANCH  20  21
ENDBRANCH  17  20
ENDBRANCH   1  14
BRANCH   1  27
ATOM     27  C   UNL     1      -5.342   0.224  -3.885  1.00  0.00     0.113 C
ATOM     28  N   UNL     1      -5.895  -0.523  -4.580  1.00  0.00    -0.194 NA
ENDBRANCH   1  27
TORSDOF 8
ENDMDL
