MODEL 1
REMARK VINA RESULT:    -6.432      0.000      0.000
REMARK INTER + INTRA:         -12.319
REMARK INTER:                  -9.064
REMARK INTRA:                  -3.255
REMARK UNBOUND:                -3.255
REMARK SMILES CC1(C)[C@H](C=C(Cl)Cl)[C@H]1C(=O)OCc1cccc(Oc2ccccc2)c1
REMARK SMILES IDX 13 1 12 2 10 3 11 4 9 5 4 6 2 7 1 8 3 9 5 10 7 11 6 12 8 13
REMARK SMILES IDX 14 14 26 15 15 16 18 17 16 18 17 19 19 20 20 21 21 22 25 23
REMARK SMILES IDX 22 24 24 25 23 26
REMARK H PARENT
REMARK Flexibility Score: inf
ROOT
ATOM      1  C   UNL     1      -0.475   6.636  -3.360  1.00  0.00     0.268 C 
ENDROOT
BRANCH   1   2
ATOM      2  O   UNL     1      -0.324   5.269  -3.001  1.00  0.00    -0.461 OA
BRANCH   2   3
ATOM      3  C   UNL     1      -0.077   5.025  -1.681  1.00  0.00     0.310 C 
ATOM      4  O   UNL     1       0.559   5.736  -0.915  1.00  0.00    -0.252 OA
BRANCH   3   5
ATOM      5  C   UNL     1      -0.685   3.747  -1.231  1.00  0.00     0.113 C 
ATOM      6  C   UNL     1      -1.899   3.248  -1.949  1.00  0.00     0.035 C 
ATOM      7  C   UNL     1      -2.011   3.751  -0.540  1.00  0.00    -0.014 C 
ATOM      8  C   UNL     1      -2.286   2.746   0.528  1.00  0.00     0.012 C 
ATOM      9  C   UNL     1      -2.635   5.080  -0.274  1.00  0.00     0.012 C 
BRANCH   6  10
ATOM     10  C   UNL     1      -1.994   1.823  -2.233  1.00  0.00     0.011 C 
ATOM     11  Cl  UNL     1      -0.794   1.992  -4.639  1.00  0.00    -0.071 Cl
ATOM     12  C   UNL     1      -1.567   1.176  -3.328  1.00  0.00     0.103 C 
ATOM     13  Cl  UNL     1      -1.781  -0.534  -3.473  1.00  0.00    -0.071 Cl
ENDBRANCH   6  10
ENDBRANCH   3   5
ENDBRANCH   2   3
ENDBRANCH   1   2
BRANCH   1  14
ATOM     14  C   UNL     1      -1.894   7.049  -3.158  1.00  0.00    -0.007 A 
ATOM     15  C   UNL     1      -2.927   6.282  -3.697  1.00  0.00     0.054 A 
ATOM     16  C   UNL     1      -2.188   8.201  -2.429  1.00  0.00     0.007 A 
ATOM     17  C   UNL     1      -4.253   6.668  -3.508  1.00  0.00     0.127 A 
ATOM     18  C   UNL     1      -3.514   8.587  -2.240  1.00  0.00     0.004 A 
ATOM     19  C   UNL     1      -4.547   7.820  -2.779  1.00  0.00     0.047 A 
BRANCH  17  20
ATOM     20  O   UNL     1      -5.262   5.920  -4.034  1.00  0.00    -0.457 OA
BRANCH  20  21
ATOM     21  C   UNL     1      -5.317   4.580  -3.690  1.00  0.00     0.127 A 
ATOM     22  C   UNL     1      -5.637   4.232  -2.389  1.00  0.00     0.047 A 
ATOM     23  C   UNL     1      -5.052   3.625  -4.653  1.00  0.00     0.047 A 
ATOM     24  C   UNL     1      -5.693   2.883  -2.042  1.00  0.00     0.004 A 
ATOM     25  C   UNL     1      -5.108   2.275  -4.305  1.00  0.00     0.004 A 
ATOM     26  C   UNL     1      -5.430   1.904  -3.000  1.00  0.00     0.000 A 
ENDBRANCH  20  21
ENDBRANCH  17  20
ENDBRANCH   1  14
TORSDOF 7
ENDMDL
MODEL 2
REMARK VINA RESULT:    -6.154      1.110      1.366
REMARK INTER + INTRA:         -11.928
REMARK INTER:                  -8.746
REMARK INTRA:                  -3.182
REMARK UNBOUND:                -3.255
REMARK SMILES CC1(C)[C@H](C=C(Cl)Cl)[C@H]1C(=O)OCc1cccc(Oc2ccccc2)c1
REMARK SMILES IDX 13 1 12 2 10 3 11 4 9 5 4 6 2 7 1 8 3 9 5 10 7 11 6 12 8 13
REMARK SMILES IDX 14 14 26 15 15 16 18 17 16 18 17 19 19 20 20 21 21 22 25 23
REMARK SMILES IDX 22 24 24 25 23 26
REMARK H PARENT
REMARK Flexibility Score: inf
ROOT
ATOM      1  C   UNL     1       0.766   5.199  -3.957  1.00  0.00     0.268 C 
ENDROOT
BRANCH   1   2
ATOM      2  O   UNL     1       0.467   3.940  -3.368  1.00  0.00    -0.461 OA
BRANCH   2   3
ATOM      3  C   UNL     1       0.579   3.878  -2.009  1.00  0.00     0.310 C 
ATOM      4  O   UNL     1       1.380   4.487  -1.315  1.00  0.00    -0.252 OA
BRANCH   3   5
ATOM      5  C   UNL     1      -0.418   2.952  -1.415  1.00  0.00     0.113 C 
ATOM      6  C   UNL     1      -1.744   2.807  -2.092  1.00  0.00     0.035 C 
ATOM      7  C   UNL     1      -1.649   3.495  -0.761  1.00  0.00    -0.014 C 
ATOM      8  C   UNL     1      -2.227   2.789   0.419  1.00  0.00     0.012 C 
ATOM      9  C   UNL     1      -1.779   4.979  -0.683  1.00  0.00     0.012 C 
BRANCH   6  10
ATOM     10  C   UNL     1      -2.325   1.476  -2.193  1.00  0.00     0.011 C 
ATOM     11  Cl  UNL     1      -0.606   0.625  -4.086  1.00  0.00    -0.071 Cl
ATOM     12  C   UNL     1      -1.935   0.472  -2.994  1.00  0.00     0.103 C 
ATOM     13  Cl  UNL     1      -2.767  -1.044  -2.964  1.00  0.00    -0.071 Cl
ENDBRANCH   6  10
ENDBRANCH   3   5
ENDBRANCH   2   3
ENDBRANCH   1   2
BRANCH   1  14
ATOM     14  C   UNL     1      -0.413   6.103  -3.821  1.00  0.00    -0.007 A 
ATOM     15  C   UNL     1      -1.672   5.674  -4.242  1.00  0.00     0.054 A 
ATOM     16  C   UNL     1      -0.256   7.376  -3.273  1.00  0.00     0.007 A 
ATOM     17  C   UNL     1      -2.774   6.519  -4.114  1.00  0.00     0.127 A 
ATOM     18  C   UNL     1      -1.358   8.221  -3.146  1.00  0.00     0.004 A 
ATOM     19  C   UNL     1      -2.617   7.792  -3.567  1.00  0.00     0.047 A 
BRANCH  17  20
ATOM     20  O   UNL     1      -4.003   6.101  -4.525  1.00  0.00    -0.457 OA
BRANCH  20  21
ATOM     21  C   UNL     1      -4.575   5.031  -3.859  1.00  0.00     0.127 A 
ATOM     22  C   UNL     1      -4.935   5.179  -2.531  1.00  0.00     0.047 A 
ATOM     23  C   UNL     1      -4.772   3.843  -4.537  1.00  0.00     0.047 A 
ATOM     24  C   UNL     1      -5.512   4.102  -1.860  1.00  0.00     0.004 A 
ATOM     25  C   UNL     1      -5.349   2.764  -3.865  1.00  0.00     0.004 A 
ATOM     26  C   UNL     1      -5.719   2.895  -2.527  1.00  0.00     0.000 A 
ENDBRANCH  20  21
ENDBRANCH  17  20
ENDBRANCH   1  14
TORSDOF 7
ENDMDL
MODEL 3
REMARK VINA RESULT:    -6.093      2.800      5.960
REMARK INTER + INTRA:         -11.842
REMARK INTER:                  -8.841
REMARK INTRA:                  -3.002
REMARK UNBOUND:                -3.255
REMARK SMILES CC1(C)[C@H](C=C(Cl)Cl)[C@H]1C(=O)OCc1cccc(Oc2ccccc2)c1
REMARK SMILES IDX 13 1 12 2 10 3 11 4 9 5 4 6 2 7 1 8 3 9 5 10 7 11 6 12 8 13
REMARK SMILES IDX 14 14 26 15 15 16 18 17 16 18 17 19 19 20 20 21 21 22 25 23
REMARK SMILES IDX 22 24 24 25 23 26
REMARK H PARENT
REMARK Flexibility Score: inf
ROOT
ATOM      1  C   UNL     1      -5.258   2.963  -4.599  1.00  0.00     0.268 C 
ENDROOT
BRANCH   1   2
ATOM      2  O   UNL     1      -4.499   3.976  -3.952  1.00  0.00    -0.461 OA
BRANCH   2   3
ATOM      3  C   UNL     1      -4.982   4.404  -2.750  1.00  0.00     0.310 C 
ATOM      4  O   UNL     1      -6.145   4.363  -2.376  1.00  0.00    -0.252 OA
BRANCH   3   5
ATOM      5  C   UNL     1      -3.907   4.955  -1.887  1.00  0.00     0.113 C 
ATOM      6  C   UNL     1      -2.488   4.620  -2.221  1.00  0.00     0.035 C 
ATOM      7  C   UNL     1      -3.127   4.047  -0.990  1.00  0.00    -0.014 C 
ATOM      8  C   UNL     1      -2.649   4.552   0.330  1.00  0.00     0.012 C 
ATOM      9  C   UNL     1      -3.527   2.610  -0.963  1.00  0.00     0.012 C 
BRANCH   6  10
ATOM     10  C   UNL     1      -1.487   5.672  -2.110  1.00  0.00     0.011 C 
ATOM     11  Cl  UNL     1      -2.145   6.856  -4.439  1.00  0.00    -0.071 Cl
ATOM     12  C   UNL     1      -1.246   6.668  -2.977  1.00  0.00     0.103 C 
ATOM     13  Cl  UNL     1       0.001   7.822  -2.658  1.00  0.00    -0.071 Cl
ENDBRANCH   6  10
ENDBRANCH   3   5
ENDBRANCH   2   3
ENDBRANCH   1   2
BRANCH   1  14
ATOM     14  C   UNL     1      -4.542   1.659  -4.491  1.00  0.00    -0.007 A 
ATOM     15  C   UNL     1      -3.154   1.635  -4.361  1.00  0.00     0.054 A 
ATOM     16  C   UNL     1      -5.261   0.464  -4.518  1.00  0.00     0.007 A 
ATOM     17  C   UNL     1      -2.484   0.416  -4.259  1.00  0.00     0.127 A 
ATOM     18  C   UNL     1      -4.592  -0.755  -4.417  1.00  0.00     0.004 A 
ATOM     19  C   UNL     1      -3.203  -0.779  -4.287  1.00  0.00     0.047 A 
BRANCH  17  20
ATOM     20  O   UNL     1      -1.129   0.392  -4.132  1.00  0.00    -0.457 OA
BRANCH  20  21
ATOM     21  C   UNL     1      -0.580   0.937  -2.984  1.00  0.00     0.127 A 
ATOM     22  C   UNL     1      -0.734   0.269  -1.781  1.00  0.00     0.047 A 
ATOM     23  C   UNL     1       0.108   2.133  -3.067  1.00  0.00     0.047 A 
ATOM     24  C   UNL     1      -0.181   0.817  -0.625  1.00  0.00     0.004 A 
ATOM     25  C   UNL     1       0.662   2.680  -1.909  1.00  0.00     0.004 A 
ATOM     26  C   UNL     1       0.518   2.022  -0.688  1.00  0.00     0.000 A 
ENDBRANCH  20  21
ENDBRANCH  17  20
ENDBRANCH   1  14
TORSDOF 7
ENDMDL
MODEL 4
REMARK VINA RESULT:    -6.071      2.712      5.237
REMARK INTER + INTRA:         -11.811
REMARK INTER:                  -9.013
REMARK INTRA:                  -2.797
REMARK UNBOUND:                -3.255
REMARK SMILES CC1(C)[C@H](C=C(Cl)Cl)[C@H]1C(=O)OCc1cccc(Oc2ccccc2)c1
REMARK SMILES IDX 13 1 12 2 10 3 11 4 9 5 4 6 2 7 1 8 3 9 5 10 7 11 6 12 8 13
REMARK SMILES IDX 14 14 26 15 15 16 18 17 16 18 17 19 19 20 20 21 21 22 25 23
REMARK SMILES IDX 22 24 24 25 23 26
REMARK H PARENT
REMARK Flexibility Score: inf
ROOT
ATOM      1  C   UNL     1      -0.571   1.076  -1.036  1.00  0.00     0.268 C 
ENDROOT
BRANCH   1   2
ATOM      2  O   UNL     1      -0.621   2.497  -0.986  1.00  0.00    -0.461 OA
BRANCH   2   3
ATOM      3  C   UNL     1       0.516   3.145  -1.374  1.00  0.00     0.310 C 
ATOM      4  O   UNL     1       1.666   2.775  -1.184  1.00  0.00    -0.252 OA
BRANCH   3   5
ATOM      5  C   UNL     1       0.214   4.410  -2.089  1.00  0.00     0.113 C 
ATOM      6  C   UNL     1      -1.189   4.646  -2.552  1.00  0.00     0.035 C 
ATOM      7  C   UNL     1      -0.099   4.388  -3.551  1.00  0.00    -0.014 C 
ATOM      8  C   UNL     1       0.328   5.529  -4.412  1.00  0.00     0.012 C 
ATOM      9  C   UNL     1      -0.024   3.068  -4.243  1.00  0.00     0.012 C 
BRANCH   6  10
ATOM     10  C   UNL     1      -1.749   5.981  -2.401  1.00  0.00     0.011 C 
ATOM     11  Cl  UNL     1      -2.672   5.557   0.094  1.00  0.00    -0.071 Cl
ATOM     12  C   UNL     1      -2.396   6.482  -1.337  1.00  0.00     0.103 C 
ATOM     13  Cl  UNL     1      -2.991   8.106  -1.361  1.00  0.00    -0.071 Cl
ENDBRANCH   6  10
ENDBRANCH   3   5
ENDBRANCH   2   3
ENDBRANCH   1   2
BRANCH   1  14
ATOM     14  C   UNL     1      -1.552   0.581  -2.045  1.00  0.00    -0.007 A 
ATOM     15  C   UNL     1      -2.827   1.143  -2.111  1.00  0.00     0.054 A 
ATOM     16  C   UNL     1      -1.194  -0.443  -2.921  1.00  0.00     0.007 A 
ATOM     17  C   UNL     1      -3.744   0.680  -3.055  1.00  0.00     0.127 A 
ATOM     18  C   UNL     1      -2.111  -0.906  -3.864  1.00  0.00     0.004 A 
ATOM     19  C   UNL     1      -3.386  -0.344  -3.931  1.00  0.00     0.047 A 
BRANCH  17  20
ATOM     20  O   UNL     1      -4.989   1.227  -3.120  1.00  0.00    -0.457 OA
BRANCH  20  21
ATOM     21  C   UNL     1      -5.081   2.602  -3.252  1.00  0.00     0.127 A 
ATOM     22  C   UNL     1      -5.632   3.342  -2.219  1.00  0.00     0.047 A 
ATOM     23  C   UNL     1      -4.623   3.202  -4.410  1.00  0.00     0.047 A 
ATOM     24  C   UNL     1      -5.725   4.727  -2.352  1.00  0.00     0.004 A 
ATOM     25  C   UNL     1      -4.716   4.588  -4.541  1.00  0.00     0.004 A 
ATOM     26  C   UNL     1      -5.267   5.350  -3.512  1.00  0.00     0.000 A 
ENDBRANCH  20  21
ENDBRANCH  17  20
ENDBRANCH   1  14
TORSDOF 7
ENDMDL
MODEL 5
REMARK VINA RESULT:    -6.029      2.723      4.883
REMARK INTER + INTRA:         -11.751
REMARK INTER:                  -9.799
REMARK INTRA:                  -1.953
REMARK UNBOUND:                -3.255
REMARK SMILES CC1(C)[C@H](C=C(Cl)Cl)[C@H]1C(=O)OCc1cccc(Oc2ccccc2)c1
REMARK SMILES IDX 13 1 12 2 10 3 11 4 9 5 4 6 2 7 1 8 3 9 5 10 7 11 6 12 8 13
REMARK SMILES IDX 14 14 26 15 15 16 18 17 16 18 17 19 19 20 20 21 21 22 25 23
REMARK SMILES IDX 22 24 24 25 23 26
REMARK H PARENT
REMARK Flexibility Score: inf
ROOT
ATOM      1  C   UNL     1      -3.688   0.968  -4.314  1.00  0.00     0.268 C 
ENDROOT
BRANCH   1   2
ATOM      2  O   UNL     1      -2.305   1.157  -4.042  1.00  0.00    -0.461 OA
BRANCH   2   3
ATOM      3  C   UNL     1      -1.848   0.605  -2.881  1.00  0.00     0.310 C 
ATOM      4  O   UNL     1      -2.185  -0.468  -2.401  1.00  0.00    -0.252 OA
BRANCH   3   5
ATOM      5  C   UNL     1      -0.845   1.474  -2.214  1.00  0.00     0.113 C 
ATOM      6  C   UNL     1      -0.445   1.147  -0.810  1.00  0.00     0.035 C 
ATOM      7  C   UNL     1      -1.260   2.375  -1.095  1.00  0.00    -0.014 C 
ATOM      8  C   UNL     1      -0.590   3.697  -0.929  1.00  0.00     0.012 C 
ATOM      9  C   UNL     1      -2.710   2.400  -0.745  1.00  0.00     0.012 C 
BRANCH   6  10
ATOM     10  C   UNL     1       0.960   1.263  -0.449  1.00  0.00     0.011 C 
ATOM     11  Cl  UNL     1       0.613   0.410   2.083  1.00  0.00    -0.071 Cl
ATOM     12  C   UNL     1       1.527   0.983   0.735  1.00  0.00     0.103 C 
ATOM     13  Cl  UNL     1       3.229   1.193   0.961  1.00  0.00    -0.071 Cl
ENDBRANCH   6  10
ENDBRANCH   3   5
ENDBRANCH   2   3
ENDBRANCH   1   2
BRANCH   1  14
ATOM     14  C   UNL     1      -4.459   2.139  -3.804  1.00  0.00    -0.007 A 
ATOM     15  C   UNL     1      -4.134   3.427  -4.231  1.00  0.00     0.054 A 
ATOM     16  C   UNL     1      -5.505   1.946  -2.902  1.00  0.00     0.007 A 
ATOM     17  C   UNL     1      -4.855   4.521  -3.755  1.00  0.00     0.127 A 
ATOM     18  C   UNL     1      -6.225   3.041  -2.425  1.00  0.00     0.004 A 
ATOM     19  C   UNL     1      -5.900   4.329  -2.852  1.00  0.00     0.047 A 
BRANCH  17  20
ATOM     20  O   UNL     1      -4.538   5.778  -4.171  1.00  0.00    -0.457 OA
BRANCH  20  21
ATOM     21  C   UNL     1      -3.942   6.629  -3.256  1.00  0.00     0.127 A 
ATOM     22  C   UNL     1      -2.859   6.178  -2.523  1.00  0.00     0.047 A 
ATOM     23  C   UNL     1      -4.445   7.907  -3.098  1.00  0.00     0.047 A 
ATOM     24  C   UNL     1      -2.259   7.035  -1.601  1.00  0.00     0.004 A 
ATOM     25  C   UNL     1      -3.844   8.764  -2.175  1.00  0.00     0.004 A 
ATOM     26  C   UNL     1      -2.750   8.328  -1.427  1.00  0.00     0.000 A 
ENDBRANCH  20  21
ENDBRANCH  17  20
ENDBRANCH   1  14
TORSDOF 7
ENDMDL
