MODEL 1
REMARK VINA RESULT:    -6.199      0.000      0.000
REMARK INTER + INTRA:          -7.910
REMARK INTER:                  -7.286
REMARK INTRA:                  -0.624
REMARK UNBOUND:                -0.624
REMARK SMILES Clc1ccc(C(c2ccc(Cl)cc2)C(Cl)(Cl)Cl)cc1
REMARK SMILES IDX 6 1 14 2 15 3 16 4 17 5 5 6 4 7 18 8 3 9 19 10 2 11 1 12
REMARK SMILES IDX 7 13 8 14 13 15 9 16 12 17 10 18 11 19
REMARK H PARENT
REMARK Flexibility Score: inf
ROOT
ATOM      1  C   UNL     1      -1.305   1.983  -1.235  1.00  0.00     0.101 C 
ENDROOT
BRANCH   1   2
ATOM      2  C   UNL     1      -1.716   1.125  -2.504  1.00  0.00     0.201 C 
ATOM      3  Cl  UNL     1      -1.026   1.715  -4.050  1.00  0.00    -0.083 Cl
ATOM      4  Cl  UNL     1      -3.519   1.171  -2.701  1.00  0.00    -0.083 Cl
ATOM      5  Cl  UNL     1      -1.283  -0.617  -2.319  1.00  0.00    -0.083 Cl
ENDBRANCH   1   2
BRANCH   1   6
ATOM      6  C   UNL     1      -1.732   3.412  -1.257  1.00  0.00    -0.036 A 
ATOM      7  C   UNL     1      -1.664   4.141  -2.444  1.00  0.00     0.006 A 
ATOM      8  C   UNL     1      -2.196   4.020  -0.090  1.00  0.00     0.006 A 
ATOM      9  C   UNL     1      -2.062   5.479  -2.464  1.00  0.00     0.021 A 
ATOM     10  C   UNL     1      -2.595   5.356  -0.111  1.00  0.00     0.021 A 
ATOM     11  C   UNL     1      -2.527   6.085  -1.297  1.00  0.00     0.041 A 
ATOM     12  Cl  UNL     1      -3.018   7.735  -1.322  1.00  0.00    -0.084 Cl
ENDBRANCH   1   6
BRANCH   1  13
ATOM     13  C   UNL     1       0.144   1.798  -0.720  1.00  0.00    -0.036 A 
ATOM     14  C   UNL     1       1.159   2.347  -1.452  1.00  0.00     0.006 A 
ATOM     15  C   UNL     1       0.326   1.094   0.438  1.00  0.00     0.006 A 
ATOM     16  C   UNL     1       2.463   2.179  -0.988  1.00  0.00     0.021 A 
ATOM     17  C   UNL     1       1.631   0.925   0.901  1.00  0.00     0.021 A 
ATOM     18  C   UNL     1       2.700   1.468   0.188  1.00  0.00     0.041 A 
ATOM     19  Cl  UNL     1       4.310   1.260   0.760  1.00  0.00    -0.084 Cl
ENDBRANCH   1  13
TORSDOF 3
ENDMDL
MODEL 2
REMARK VINA RESULT:    -6.020      0.536      1.709
REMARK INTER + INTRA:          -7.701
REMARK INTER:                  -7.179
REMARK INTRA:                  -0.522
REMARK UNBOUND:                -0.624
REMARK SMILES Clc1ccc(C(c2ccc(Cl)cc2)C(Cl)(Cl)Cl)cc1
REMARK SMILES IDX 6 1 14 2 15 3 16 4 17 5 5 6 4 7 18 8 3 9 19 10 2 11 1 12
REMARK SMILES IDX 7 13 8 14 13 15 9 16 12 17 10 18 11 19
REMARK H PARENT
REMARK Flexibility Score: inf
ROOT
ATOM      1  C   UNL     1      -1.482   1.757  -1.362  1.00  0.00     0.101 C 
ENDROOT
BRANCH   1   2
ATOM      2  C   UNL     1      -1.917   0.766  -2.522  1.00  0.00     0.201 C 
ATOM      3  Cl  UNL     1      -3.683   0.472  -2.617  1.00  0.00    -0.083 Cl
ATOM      4  Cl  UNL     1      -1.146  -0.854  -2.248  1.00  0.00    -0.083 Cl
ATOM      5  Cl  UNL     1      -1.347   1.319  -4.142  1.00  0.00    -0.083 Cl
ENDBRANCH   1   2
BRANCH   1   6
ATOM      6  C   UNL     1      -1.985   3.155  -1.485  1.00  0.00    -0.036 A 
ATOM      7  C   UNL     1      -2.403   3.639  -2.724  1.00  0.00     0.006 A 
ATOM      8  C   UNL     1      -2.036   3.980  -0.361  1.00  0.00     0.006 A 
ATOM      9  C   UNL     1      -2.873   4.948  -2.840  1.00  0.00     0.021 A 
ATOM     10  C   UNL     1      -2.507   5.288  -0.476  1.00  0.00     0.021 A 
ATOM     11  C   UNL     1      -2.925   5.772  -1.715  1.00  0.00     0.041 A 
ATOM     12  Cl  UNL     1      -3.504   7.386  -1.858  1.00  0.00    -0.084 Cl
ENDBRANCH   1   6
BRANCH   1  13
ATOM     13  C   UNL     1       0.003   1.690  -0.922  1.00  0.00    -0.036 A 
ATOM     14  C   UNL     1       0.305   0.974   0.202  1.00  0.00     0.006 A 
ATOM     15  C   UNL     1       0.925   2.354  -1.682  1.00  0.00     0.006 A 
ATOM     16  C   UNL     1       1.641   0.916   0.598  1.00  0.00     0.021 A 
ATOM     17  C   UNL     1       2.261   2.296  -1.285  1.00  0.00     0.021 A 
ATOM     18  C   UNL     1       2.619   1.576  -0.145  1.00  0.00     0.041 A 
ATOM     19  Cl  UNL     1       4.268   1.506   0.345  1.00  0.00    -0.084 Cl
ENDBRANCH   1  13
TORSDOF 3
ENDMDL
MODEL 3
REMARK VINA RESULT:    -5.981      2.324      4.763
REMARK INTER + INTRA:          -7.654
REMARK INTER:                  -7.047
REMARK INTRA:                  -0.607
REMARK UNBOUND:                -0.624
REMARK SMILES Clc1ccc(C(c2ccc(Cl)cc2)C(Cl)(Cl)Cl)cc1
REMARK SMILES IDX 6 1 14 2 15 3 16 4 17 5 5 6 4 7 18 8 3 9 19 10 2 11 1 12
REMARK SMILES IDX 7 13 8 14 13 15 9 16 12 17 10 18 11 19
REMARK H PARENT
REMARK Flexibility Score: inf
ROOT
ATOM      1  C   UNL     1      -0.155   1.457  -1.840  1.00  0.00     0.101 C 
ENDROOT
BRANCH   1   2
ATOM      2  C   UNL     1       0.251   0.910  -0.407  1.00  0.00     0.201 C 
ATOM      3  Cl  UNL     1      -0.739   1.561   0.939  1.00  0.00    -0.083 Cl
ATOM      4  Cl  UNL     1       1.967   1.377  -0.050  1.00  0.00    -0.083 Cl
ATOM      5  Cl  UNL     1       0.201  -0.892  -0.325  1.00  0.00    -0.083 Cl
ENDBRANCH   1   2
BRANCH   1   6
ATOM      6  C   UNL     1      -0.065   2.935  -2.015  1.00  0.00    -0.036 A 
ATOM      7  C   UNL     1       0.505   3.466  -3.172  1.00  0.00     0.006 A 
ATOM      8  C   UNL     1      -0.549   3.787  -1.022  1.00  0.00     0.006 A 
ATOM      9  C   UNL     1       0.590   4.849  -3.336  1.00  0.00     0.021 A 
ATOM     10  C   UNL     1      -0.464   5.169  -1.186  1.00  0.00     0.021 A 
ATOM     11  C   UNL     1       0.105   5.700  -2.343  1.00  0.00     0.041 A 
ATOM     12  Cl  UNL     1       0.211   7.406  -2.545  1.00  0.00    -0.084 Cl
ENDBRANCH   1   6
BRANCH   1  13
ATOM     13  C   UNL     1      -1.437   0.855  -2.468  1.00  0.00    -0.036 A 
ATOM     14  C   UNL     1      -2.644   1.273  -1.982  1.00  0.00     0.006 A 
ATOM     15  C   UNL     1      -1.288  -0.060  -3.472  1.00  0.00     0.006 A 
ATOM     16  C   UNL     1      -3.798   0.730  -2.547  1.00  0.00     0.021 A 
ATOM     17  C   UNL     1      -2.442  -0.604  -4.037  1.00  0.00     0.021 A 
ATOM     18  C   UNL     1      -3.697  -0.208  -3.574  1.00  0.00     0.041 A 
ATOM     19  Cl  UNL     1      -5.121  -0.879  -4.271  1.00  0.00    -0.084 Cl
ENDBRANCH   1  13
TORSDOF 3
ENDMDL
MODEL 4
REMARK VINA RESULT:    -5.844      2.368      6.030
REMARK INTER + INTRA:          -7.494
REMARK INTER:                  -7.063
REMARK INTRA:                  -0.431
REMARK UNBOUND:                -0.624
REMARK SMILES Clc1ccc(C(c2ccc(Cl)cc2)C(Cl)(Cl)Cl)cc1
REMARK SMILES IDX 6 1 14 2 15 3 16 4 17 5 5 6 4 7 18 8 3 9 19 10 2 11 1 12
REMARK SMILES IDX 7 13 8 14 13 15 9 16 12 17 10 18 11 19
REMARK H PARENT
REMARK Flexibility Score: inf
ROOT
ATOM      1  C   UNL     1      -2.994   1.550  -3.333  1.00  0.00     0.101 C 
ENDROOT
BRANCH   1   2
ATOM      2  C   UNL     1      -3.975   0.335  -3.611  1.00  0.00     0.201 C 
ATOM      3  Cl  UNL     1      -3.216  -1.045  -4.468  1.00  0.00    -0.083 Cl
ATOM      4  Cl  UNL     1      -5.343   0.897  -4.663  1.00  0.00    -0.083 Cl
ATOM      5  Cl  UNL     1      -4.737  -0.288  -2.099  1.00  0.00    -0.083 Cl
ENDBRANCH   1   2
BRANCH   1   6
ATOM      6  C   UNL     1      -1.941   1.307  -2.305  1.00  0.00    -0.036 A 
ATOM      7  C   UNL     1      -1.285   0.077  -2.257  1.00  0.00     0.006 A 
ATOM      8  C   UNL     1      -1.612   2.309  -1.392  1.00  0.00     0.006 A 
ATOM      9  C   UNL     1      -0.300  -0.151  -1.295  1.00  0.00     0.021 A 
ATOM     10  C   UNL     1      -0.628   2.082  -0.431  1.00  0.00     0.021 A 
ATOM     11  C   UNL     1       0.028   0.852  -0.382  1.00  0.00     0.041 A 
ATOM     12  Cl  UNL     1       1.243   0.571   0.805  1.00  0.00    -0.084 Cl
ENDBRANCH   1   6
BRANCH   1  13
ATOM     13  C   UNL     1      -3.651   2.947  -3.199  1.00  0.00    -0.036 A 
ATOM     14  C   UNL     1      -4.511   3.153  -2.157  1.00  0.00     0.006 A 
ATOM     15  C   UNL     1      -3.333   3.895  -4.132  1.00  0.00     0.006 A 
ATOM     16  C   UNL     1      -5.103   4.410  -2.039  1.00  0.00     0.021 A 
ATOM     17  C   UNL     1      -3.926   5.152  -4.014  1.00  0.00     0.021 A 
ATOM     18  C   UNL     1      -4.810   5.410  -2.966  1.00  0.00     0.041 A 
ATOM     19  Cl  UNL     1      -5.541   6.962  -2.821  1.00  0.00    -0.084 Cl
ENDBRANCH   1  13
TORSDOF 3
ENDMDL
MODEL 5
REMARK VINA RESULT:    -5.840      2.575      3.722
REMARK INTER + INTRA:          -7.488
REMARK INTER:                  -7.124
REMARK INTRA:                  -0.364
REMARK UNBOUND:                -0.624
REMARK SMILES Clc1ccc(C(c2ccc(Cl)cc2)C(Cl)(Cl)Cl)cc1
REMARK SMILES IDX 6 1 14 2 15 3 16 4 17 5 5 6 4 7 18 8 3 9 19 10 2 11 1 12
REMARK SMILES IDX 7 13 8 14 13 15 9 16 12 17 10 18 11 19
REMARK H PARENT
REMARK Flexibility Score: inf
ROOT
ATOM      1  C   UNL     1      -4.520   3.894  -1.712  1.00  0.00     0.101 C 
ENDROOT
BRANCH   1   2
ATOM      2  C   UNL     1      -5.394   3.025  -2.710  1.00  0.00     0.201 C 
ATOM      3  Cl  UNL     1      -5.138   3.411  -4.442  1.00  0.00    -0.083 Cl
ATOM      4  Cl  UNL     1      -7.154   3.318  -2.378  1.00  0.00    -0.083 Cl
ATOM      5  Cl  UNL     1      -5.135   1.254  -2.481  1.00  0.00    -0.083 Cl
ENDBRANCH   1   2
BRANCH   1   6
ATOM      6  C   UNL     1      -4.429   5.348  -2.031  1.00  0.00    -0.036 A 
ATOM      7  C   UNL     1      -3.264   6.055  -1.735  1.00  0.00     0.006 A 
ATOM      8  C   UNL     1      -5.511   6.001  -2.623  1.00  0.00     0.006 A 
ATOM      9  C   UNL     1      -3.180   7.415  -2.032  1.00  0.00     0.021 A 
ATOM     10  C   UNL     1      -5.426   7.361  -2.921  1.00  0.00     0.021 A 
ATOM     11  C   UNL     1      -4.261   8.068  -2.625  1.00  0.00     0.041 A 
ATOM     12  Cl  UNL     1      -4.157   9.747  -2.992  1.00  0.00    -0.084 Cl
ENDBRANCH   1   6
BRANCH   1  13
ATOM     13  C   UNL     1      -3.160   3.288  -1.283  1.00  0.00    -0.036 A 
ATOM     14  C   UNL     1      -2.214   3.090  -2.250  1.00  0.00     0.006 A 
ATOM     15  C   UNL     1      -2.983   2.985   0.038  1.00  0.00     0.006 A 
ATOM     16  C   UNL     1      -0.991   2.543  -1.864  1.00  0.00     0.021 A 
ATOM     17  C   UNL     1      -1.759   2.438   0.424  1.00  0.00     0.021 A 
ATOM     18  C   UNL     1      -0.763   2.218  -0.527  1.00  0.00     0.041 A 
ATOM     19  Cl  UNL     1       0.747   1.542  -0.050  1.00  0.00    -0.084 Cl
ENDBRANCH   1  13
TORSDOF 3
ENDMDL
