MODEL 1
REMARK VINA RESULT:    -6.617      0.000      0.000
REMARK INTER + INTRA:         -12.449
REMARK INTER:                  -9.324
REMARK INTRA:                  -3.124
REMARK UNBOUND:                -3.124
REMARK SMILES CC1(C)[C@H](C=C(Cl)Cl)[C@H]1C(=O)OCc1cccc(Oc2ccccc2)c1
REMARK SMILES IDX 13 1 12 2 10 3 11 4 9 5 4 6 2 7 1 8 3 9 5 10 7 11 6 12 8 13
REMARK SMILES IDX 14 14 26 15 15 16 18 17 16 18 17 19 19 20 20 21 21 22 25 23
REMARK SMILES IDX 22 24 24 25 23 26
REMARK H PARENT
REMARK Flexibility Score: inf
ROOT
ATOM      1  C   UNL     1      -0.556   6.928  -3.091  1.00  0.00     0.268 C 
ENDROOT
BRANCH   1   2
ATOM      2  O   UNL     1      -0.350   5.532  -2.915  1.00  0.00    -0.461 OA
BRANCH   2   3
ATOM      3  C   UNL     1       0.036   5.142  -1.665  1.00  0.00     0.310 C 
ATOM      4  O   UNL     1       0.780   5.750  -0.909  1.00  0.00    -0.252 OA
BRANCH   3   5
ATOM      5  C   UNL     1      -0.564   3.838  -1.283  1.00  0.00     0.113 C 
ATOM      6  C   UNL     1      -1.767   3.363  -2.036  1.00  0.00     0.035 C 
ATOM      7  C   UNL     1      -1.896   3.797  -0.605  1.00  0.00    -0.014 C 
ATOM      8  C   UNL     1      -2.171   2.738   0.411  1.00  0.00     0.012 C 
ATOM      9  C   UNL     1      -2.536   5.105  -0.281  1.00  0.00     0.012 C 
BRANCH   6  10
ATOM     10  C   UNL     1      -1.846   1.953  -2.389  1.00  0.00     0.011 C 
ATOM     11  Cl  UNL     1      -0.045   2.120  -4.386  1.00  0.00    -0.071 Cl
ATOM     12  C   UNL     1      -1.173   1.313  -3.357  1.00  0.00     0.103 C 
ATOM     13  Cl  UNL     1      -1.416  -0.380  -3.618  1.00  0.00    -0.071 Cl
ENDBRANCH   6  10
ENDBRANCH   3   5
ENDBRANCH   2   3
ENDBRANCH   1   2
BRANCH   1  14
ATOM     14  C   UNL     1      -2.015   7.228  -3.014  1.00  0.00    -0.007 A 
ATOM     15  C   UNL     1      -2.934   6.385  -3.640  1.00  0.00     0.054 A 
ATOM     16  C   UNL     1      -2.460   8.350  -2.316  1.00  0.00     0.007 A 
ATOM     17  C   UNL     1      -4.298   6.666  -3.567  1.00  0.00     0.127 A 
ATOM     18  C   UNL     1      -3.824   8.631  -2.244  1.00  0.00     0.004 A 
ATOM     19  C   UNL     1      -4.743   7.788  -2.869  1.00  0.00     0.047 A 
BRANCH  17  20
ATOM     20  O   UNL     1      -5.195   5.843  -4.177  1.00  0.00    -0.457 OA
BRANCH  20  21
ATOM     21  C   UNL     1      -5.251   4.526  -3.758  1.00  0.00     0.127 A 
ATOM     22  C   UNL     1      -5.580   4.251  -2.442  1.00  0.00     0.047 A 
ATOM     23  C   UNL     1      -4.976   3.517  -4.663  1.00  0.00     0.047 A 
ATOM     24  C   UNL     1      -5.635   2.924  -2.019  1.00  0.00     0.004 A 
ATOM     25  C   UNL     1      -5.033   2.189  -4.239  1.00  0.00     0.004 A 
ATOM     26  C   UNL     1      -5.363   1.893  -2.917  1.00  0.00     0.000 A 
ENDBRANCH  20  21
ENDBRANCH  17  20
ENDBRANCH   1  14
TORSDOF 7
ENDMDL
MODEL 2
REMARK VINA RESULT:    -6.376      2.838      6.017
REMARK INTER + INTRA:         -12.109
REMARK INTER:                  -9.252
REMARK INTRA:                  -2.857
REMARK UNBOUND:                -3.124
REMARK SMILES CC1(C)[C@H](C=C(Cl)Cl)[C@H]1C(=O)OCc1cccc(Oc2ccccc2)c1
REMARK SMILES IDX 13 1 12 2 10 3 11 4 9 5 4 6 2 7 1 8 3 9 5 10 7 11 6 12 8 13
REMARK SMILES IDX 14 14 26 15 15 16 18 17 16 18 17 19 19 20 20 21 21 22 25 23
REMARK SMILES IDX 22 24 24 25 23 26
REMARK H PARENT
REMARK Flexibility Score: inf
ROOT
ATOM      1  C   UNL     1      -5.104   2.927  -4.620  1.00  0.00     0.268 C 
ENDROOT
BRANCH   1   2
ATOM      2  O   UNL     1      -4.360   3.929  -3.938  1.00  0.00    -0.461 OA
BRANCH   2   3
ATOM      3  C   UNL     1      -4.840   4.296  -2.714  1.00  0.00     0.310 C 
ATOM      4  O   UNL     1      -5.999   4.210  -2.330  1.00  0.00    -0.252 OA
BRANCH   3   5
ATOM      5  C   UNL     1      -3.770   4.837  -1.840  1.00  0.00     0.113 C 
ATOM      6  C   UNL     1      -2.349   4.509  -2.172  1.00  0.00     0.035 C 
ATOM      7  C   UNL     1      -2.992   3.919  -0.951  1.00  0.00    -0.014 C 
ATOM      8  C   UNL     1      -2.520   4.407   0.377  1.00  0.00     0.012 C 
ATOM      9  C   UNL     1      -3.390   2.481  -0.944  1.00  0.00     0.012 C 
BRANCH   6  10
ATOM     10  C   UNL     1      -1.350   5.560  -2.044  1.00  0.00     0.011 C 
ATOM     11  Cl  UNL     1      -2.095   6.853  -4.287  1.00  0.00    -0.071 Cl
ATOM     12  C   UNL     1      -1.145   6.599  -2.868  1.00  0.00     0.103 C 
ATOM     13  Cl  UNL     1       0.107   7.745  -2.535  1.00  0.00    -0.071 Cl
ENDBRANCH   6  10
ENDBRANCH   3   5
ENDBRANCH   2   3
ENDBRANCH   1   2
BRANCH   1  14
ATOM     14  C   UNL     1      -4.413   1.613  -4.479  1.00  0.00    -0.007 A 
ATOM     15  C   UNL     1      -3.029   1.568  -4.313  1.00  0.00     0.054 A 
ATOM     16  C   UNL     1      -5.152   0.431  -4.511  1.00  0.00     0.007 A 
ATOM     17  C   UNL     1      -2.384   0.338  -4.180  1.00  0.00     0.127 A 
ATOM     18  C   UNL     1      -4.506  -0.798  -4.379  1.00  0.00     0.004 A 
ATOM     19  C   UNL     1      -3.122  -0.844  -4.213  1.00  0.00     0.047 A 
BRANCH  17  20
ATOM     20  O   UNL     1      -1.033   0.293  -4.019  1.00  0.00    -0.457 OA
BRANCH  20  21
ATOM     21  C   UNL     1      -0.517   0.676  -2.793  1.00  0.00     0.127 A 
ATOM     22  C   UNL     1       0.059   1.929  -2.666  1.00  0.00     0.047 A 
ATOM     23  C   UNL     1      -0.590  -0.201  -1.727  1.00  0.00     0.047 A 
ATOM     24  C   UNL     1       0.578   2.314  -1.431  1.00  0.00     0.004 A 
ATOM     25  C   UNL     1      -0.070   0.186  -0.491  1.00  0.00     0.004 A 
ATOM     26  C   UNL     1       0.513   1.444  -0.343  1.00  0.00     0.000 A 
ENDBRANCH  20  21
ENDBRANCH  17  20
ENDBRANCH   1  14
TORSDOF 7
ENDMDL
MODEL 3
REMARK VINA RESULT:    -6.359      2.278      4.493
REMARK INTER + INTRA:         -12.085
REMARK INTER:                  -9.921
REMARK INTRA:                  -2.164
REMARK UNBOUND:                -3.124
REMARK SMILES CC1(C)[C@H](C=C(Cl)Cl)[C@H]1C(=O)OCc1cccc(Oc2ccccc2)c1
REMARK SMILES IDX 13 1 12 2 10 3 11 4 9 5 4 6 2 7 1 8 3 9 5 10 7 11 6 12 8 13
REMARK SMILES IDX 14 14 26 15 15 16 18 17 16 18 17 19 19 20 20 21 21 22 25 23
REMARK SMILES IDX 22 24 24 25 23 26
REMARK H PARENT
REMARK Flexibility Score: inf
ROOT
ATOM      1  C   UNL     1      -4.450   2.037  -4.210  1.00  0.00     0.268 C 
ENDROOT
BRANCH   1   2
ATOM      2  O   UNL     1      -3.073   2.091  -3.862  1.00  0.00    -0.461 OA
BRANCH   2   3
ATOM      3  C   UNL     1      -2.757   1.638  -2.614  1.00  0.00     0.310 C 
ATOM      4  O   UNL     1      -3.301   0.722  -2.012  1.00  0.00    -0.252 OA
BRANCH   3   5
ATOM      5  C   UNL     1      -1.629   2.397  -2.018  1.00  0.00     0.113 C 
ATOM      6  C   UNL     1      -1.286   2.148  -0.584  1.00  0.00     0.035 C 
ATOM      7  C   UNL     1      -1.896   3.456  -0.996  1.00  0.00    -0.014 C 
ATOM      8  C   UNL     1      -1.024   4.666  -0.946  1.00  0.00     0.012 C 
ATOM      9  C   UNL     1      -3.323   3.743  -0.671  1.00  0.00     0.012 C 
BRANCH   6  10
ATOM     10  C   UNL     1       0.121   2.075  -0.214  1.00  0.00     0.011 C 
ATOM     11  Cl  UNL     1       0.210  -0.618  -0.201  1.00  0.00    -0.071 Cl
ATOM     12  C   UNL     1       0.861   0.971  -0.024  1.00  0.00     0.103 C 
ATOM     13  Cl  UNL     1       2.528   1.102   0.418  1.00  0.00    -0.071 Cl
ENDBRANCH   6  10
ENDBRANCH   3   5
ENDBRANCH   2   3
ENDBRANCH   1   2
BRANCH   1  14
ATOM     14  C   UNL     1      -5.163   3.198  -3.602  1.00  0.00    -0.007 A 
ATOM     15  C   UNL     1      -4.762   4.499  -3.907  1.00  0.00     0.054 A 
ATOM     16  C   UNL     1      -6.230   2.982  -2.731  1.00  0.00     0.007 A 
ATOM     17  C   UNL     1      -5.429   5.584  -3.339  1.00  0.00     0.127 A 
ATOM     18  C   UNL     1      -6.896   4.067  -2.162  1.00  0.00     0.004 A 
ATOM     19  C   UNL     1      -6.495   5.368  -2.467  1.00  0.00     0.047 A 
BRANCH  17  20
ATOM     20  O   UNL     1      -5.038   6.854  -3.635  1.00  0.00    -0.457 OA
BRANCH  20  21
ATOM     21  C   UNL     1      -3.775   7.250  -3.231  1.00  0.00     0.127 A 
ATOM     22  C   UNL     1      -3.596   7.715  -1.940  1.00  0.00     0.047 A 
ATOM     23  C   UNL     1      -2.725   7.172  -4.127  1.00  0.00     0.047 A 
ATOM     24  C   UNL     1      -2.324   8.114  -1.533  1.00  0.00     0.004 A 
ATOM     25  C   UNL     1      -1.452   7.572  -3.719  1.00  0.00     0.004 A 
ATOM     26  C   UNL     1      -1.251   8.042  -2.421  1.00  0.00     0.000 A 
ENDBRANCH  20  21
ENDBRANCH  17  20
ENDBRANCH   1  14
TORSDOF 7
ENDMDL
MODEL 4
REMARK VINA RESULT:    -6.122      2.739      5.216
REMARK INTER + INTRA:         -11.751
REMARK INTER:                 -10.020
REMARK INTRA:                  -1.731
REMARK UNBOUND:                -3.124
REMARK SMILES CC1(C)[C@H](C=C(Cl)Cl)[C@H]1C(=O)OCc1cccc(Oc2ccccc2)c1
REMARK SMILES IDX 13 1 12 2 10 3 11 4 9 5 4 6 2 7 1 8 3 9 5 10 7 11 6 12 8 13
REMARK SMILES IDX 14 14 26 15 15 16 18 17 16 18 17 19 19 20 20 21 21 22 25 23
REMARK SMILES IDX 22 24 24 25 23 26
REMARK H PARENT
REMARK Flexibility Score: inf
ROOT
ATOM      1  C   UNL     1       0.760   3.158  -1.112  1.00  0.00     0.268 C 
ENDROOT
BRANCH   1   2
ATOM      2  O   UNL     1       0.179   4.168  -1.927  1.00  0.00    -0.461 OA
BRANCH   2   3
ATOM      3  C   UNL     1       0.065   5.401  -1.355  1.00  0.00     0.310 C 
ATOM      4  O   UNL     1       0.983   6.118  -0.980  1.00  0.00    -0.252 OA
BRANCH   3   5
ATOM      5  C   UNL     1      -1.353   5.821  -1.222  1.00  0.00     0.113 C 
ATOM      6  C   UNL     1      -2.317   5.408  -2.289  1.00  0.00     0.035 C 
ATOM      7  C   UNL     1      -1.919   6.849  -2.150  1.00  0.00    -0.014 C 
ATOM      8  C   UNL     1      -2.953   7.801  -1.648  1.00  0.00     0.012 C 
ATOM      9  C   UNL     1      -0.986   7.459  -3.140  1.00  0.00     0.012 C 
BRANCH   6  10
ATOM     10  C   UNL     1      -3.645   4.968  -1.884  1.00  0.00     0.011 C 
ATOM     11  Cl  UNL     1      -4.758   5.353  -4.307  1.00  0.00    -0.071 Cl
ATOM     12  C   UNL     1      -4.751   4.900  -2.641  1.00  0.00     0.103 C 
ATOM     13  Cl  UNL     1      -6.242   4.346  -1.963  1.00  0.00    -0.071 Cl
ENDBRANCH   6  10
ENDBRANCH   3   5
ENDBRANCH   2   3
ENDBRANCH   1   2
BRANCH   1  14
ATOM     14  C   UNL     1       0.198   1.829  -1.491  1.00  0.00    -0.007 A 
ATOM     15  C   UNL     1      -0.397   1.655  -2.740  1.00  0.00     0.054 A 
ATOM     16  C   UNL     1       0.270   0.761  -0.596  1.00  0.00     0.007 A 
ATOM     17  C   UNL     1      -0.922   0.412  -3.094  1.00  0.00     0.127 A 
ATOM     18  C   UNL     1      -0.255  -0.481  -0.950  1.00  0.00     0.004 A 
ATOM     19  C   UNL     1      -0.851  -0.655  -2.200  1.00  0.00     0.047 A 
BRANCH  17  20
ATOM     20  O   UNL     1      -1.503   0.241  -4.313  1.00  0.00    -0.457 OA
BRANCH  20  21
ATOM     21  C   UNL     1      -2.885   0.284  -4.379  1.00  0.00     0.127 A 
ATOM     22  C   UNL     1      -3.525   1.509  -4.297  1.00  0.00     0.047 A 
ATOM     23  C   UNL     1      -3.591  -0.895  -4.526  1.00  0.00     0.047 A 
ATOM     24  C   UNL     1      -4.917   1.553  -4.364  1.00  0.00     0.004 A 
ATOM     25  C   UNL     1      -4.984  -0.851  -4.593  1.00  0.00     0.004 A 
ATOM     26  C   UNL     1      -5.647   0.374  -4.513  1.00  0.00     0.000 A 
ENDBRANCH  20  21
ENDBRANCH  17  20
ENDBRANCH   1  14
TORSDOF 7
ENDMDL
MODEL 5
REMARK VINA RESULT:    -6.028      2.649      5.297
REMARK INTER + INTRA:         -11.618
REMARK INTER:                  -9.075
REMARK INTRA:                  -2.543
REMARK UNBOUND:                -3.124
REMARK SMILES CC1(C)[C@H](C=C(Cl)Cl)[C@H]1C(=O)OCc1cccc(Oc2ccccc2)c1
REMARK SMILES IDX 13 1 12 2 10 3 11 4 9 5 4 6 2 7 1 8 3 9 5 10 7 11 6 12 8 13
REMARK SMILES IDX 14 14 26 15 15 16 18 17 16 18 17 19 19 20 20 21 21 22 25 23
REMARK SMILES IDX 22 24 24 25 23 26
REMARK H PARENT
REMARK Flexibility Score: inf
ROOT
ATOM      1  C   UNL     1      -0.161   1.151  -4.296  1.00  0.00     0.268 C 
ENDROOT
BRANCH   1   2
ATOM      2  O   UNL     1      -1.026   0.319  -3.533  1.00  0.00    -0.461 OA
BRANCH   2   3
ATOM      3  C   UNL     1      -2.319   0.255  -3.962  1.00  0.00     0.310 C 
ATOM      4  O   UNL     1      -2.812  -0.619  -4.662  1.00  0.00    -0.252 OA
BRANCH   3   5
ATOM      5  C   UNL     1      -3.122   1.404  -3.474  1.00  0.00     0.113 C 
ATOM      6  C   UNL     1      -3.101   1.713  -2.010  1.00  0.00     0.035 C 
ATOM      7  C   UNL     1      -4.345   1.167  -2.647  1.00  0.00    -0.014 C 
ATOM      8  C   UNL     1      -5.511   2.088  -2.778  1.00  0.00     0.012 C 
ATOM      9  C   UNL     1      -4.739  -0.252  -2.408  1.00  0.00     0.012 C 
BRANCH   6  10
ATOM     10  C   UNL     1      -3.034   3.109  -1.601  1.00  0.00     0.011 C 
ATOM     11  Cl  UNL     1      -2.151   2.572   0.887  1.00  0.00    -0.071 Cl
ATOM     12  C   UNL     1      -2.651   3.595  -0.410  1.00  0.00     0.103 C 
ATOM     13  Cl  UNL     1      -2.646   5.301  -0.124  1.00  0.00    -0.071 Cl
ENDBRANCH   6  10
ENDBRANCH   3   5
ENDBRANCH   2   3
ENDBRANCH   1   2
BRANCH   1  14
ATOM     14  C   UNL     1       0.039   2.446  -3.584  1.00  0.00    -0.007 A 
ATOM     15  C   UNL     1      -0.387   3.637  -4.171  1.00  0.00     0.054 A 
ATOM     16  C   UNL     1       0.649   2.465  -2.330  1.00  0.00     0.007 A 
ATOM     17  C   UNL     1      -0.201   4.848  -3.504  1.00  0.00     0.127 A 
ATOM     18  C   UNL     1       0.836   3.675  -1.664  1.00  0.00     0.004 A 
ATOM     19  C   UNL     1       0.411   4.867  -2.251  1.00  0.00     0.047 A 
BRANCH  17  20
ATOM     20  O   UNL     1      -0.616   6.011  -4.077  1.00  0.00    -0.457 OA
BRANCH  20  21
ATOM     21  C   UNL     1      -1.712   6.647  -3.521  1.00  0.00     0.127 A 
ATOM     22  C   UNL     1      -1.510   7.726  -2.678  1.00  0.00     0.047 A 
ATOM     23  C   UNL     1      -2.982   6.189  -3.823  1.00  0.00     0.047 A 
ATOM     24  C   UNL     1      -2.614   8.367  -2.119  1.00  0.00     0.004 A 
ATOM     25  C   UNL     1      -4.087   6.832  -3.263  1.00  0.00     0.004 A 
ATOM     26  C   UNL     1      -3.903   7.921  -2.411  1.00  0.00     0.000 A 
ENDBRANCH  20  21
ENDBRANCH  17  20
ENDBRANCH   1  14
TORSDOF 7
ENDMDL
