MODEL 1
REMARK VINA RESULT:    -7.178      0.000      0.000
REMARK INTER + INTRA:         -12.257
REMARK INTER:                 -10.116
REMARK INTRA:                  -2.141
REMARK UNBOUND:                -2.141
REMARK SMILES CC1(C)[C@H](C=C(Cl)Cl)[C@H]1C(=O)OCc1cccc(Oc2ccccc2)c1
REMARK SMILES IDX 13 1 12 2 10 3 11 4 9 5 4 6 2 7 1 8 3 9 5 10 7 11 6 12 8 13
REMARK SMILES IDX 14 14 26 15 15 16 18 17 16 18 17 19 19 20 20 21 21 22 25 23
REMARK SMILES IDX 22 24 24 25 23 26
REMARK H PARENT
REMARK Flexibility Score: inf
ROOT
ATOM      1  C   UNL     1      -2.814   3.662   0.087  1.00  0.00     0.268 C 
ENDROOT
BRANCH   1   2
ATOM      2  O   UNL     1      -2.365   4.993  -0.129  1.00  0.00    -0.461 OA
BRANCH   2   3
ATOM      3  C   UNL     1      -1.231   5.124  -0.877  1.00  0.00     0.310 C 
ATOM      4  O   UNL     1      -0.235   4.417  -0.820  1.00  0.00    -0.252 OA
BRANCH   3   5
ATOM      5  C   UNL     1      -1.321   6.265  -1.823  1.00  0.00     0.113 C 
ATOM      6  C   UNL     1      -2.660   6.607  -2.396  1.00  0.00     0.035 C 
ATOM      7  C   UNL     1      -1.594   6.017  -3.273  1.00  0.00    -0.014 C 
ATOM      8  C   UNL     1      -0.978   6.908  -4.298  1.00  0.00     0.012 C 
ATOM      9  C   UNL     1      -1.697   4.595  -3.712  1.00  0.00     0.012 C 
BRANCH   6  10
ATOM     10  C   UNL     1      -3.020   8.012  -2.517  1.00  0.00     0.011 C 
ATOM     11  Cl  UNL     1      -5.655   7.544  -2.830  1.00  0.00    -0.071 Cl
ATOM     12  C   UNL     1      -4.243   8.531  -2.702  1.00  0.00     0.103 C 
ATOM     13  Cl  UNL     1      -4.458  10.243  -2.823  1.00  0.00    -0.071 Cl
ENDBRANCH   6  10
ENDBRANCH   3   5
ENDBRANCH   2   3
ENDBRANCH   1   2
BRANCH   1  14
ATOM     14  C   UNL     1      -3.798   3.293  -0.972  1.00  0.00    -0.007 A 
ATOM     15  C   UNL     1      -4.895   4.117  -1.222  1.00  0.00     0.054 A 
ATOM     16  C   UNL     1      -3.620   2.123  -1.711  1.00  0.00     0.007 A 
ATOM     17  C   UNL     1      -5.814   3.772  -2.213  1.00  0.00     0.127 A 
ATOM     18  C   UNL     1      -4.540   1.778  -2.701  1.00  0.00     0.004 A 
ATOM     19  C   UNL     1      -5.637   2.603  -2.952  1.00  0.00     0.047 A 
BRANCH  17  20
ATOM     20  O   UNL     1      -6.884   4.577  -2.458  1.00  0.00    -0.457 OA
BRANCH  20  21
ATOM     21  C   UNL     1      -7.895   4.610  -1.513  1.00  0.00     0.127 A 
ATOM     22  C   UNL     1      -8.594   3.448  -1.232  1.00  0.00     0.047 A 
ATOM     23  C   UNL     1      -8.181   5.802  -0.873  1.00  0.00     0.047 A 
ATOM     24  C   UNL     1      -9.611   3.482  -0.280  1.00  0.00     0.004 A 
ATOM     25  C   UNL     1      -9.200   5.834   0.080  1.00  0.00     0.004 A 
ATOM     26  C   UNL     1      -9.915   4.674   0.377  1.00  0.00     0.000 A 
ENDBRANCH  20  21
ENDBRANCH  17  20
ENDBRANCH   1  14
TORSDOF 7
ENDMDL
MODEL 2
REMARK VINA RESULT:    -7.065      3.140      6.041
REMARK INTER + INTRA:         -12.098
REMARK INTER:                  -9.223
REMARK INTRA:                  -2.875
REMARK UNBOUND:                -2.141
REMARK SMILES CC1(C)[C@H](C=C(Cl)Cl)[C@H]1C(=O)OCc1cccc(Oc2ccccc2)c1
REMARK SMILES IDX 13 1 12 2 10 3 11 4 9 5 4 6 2 7 1 8 3 9 5 10 7 11 6 12 8 13
REMARK SMILES IDX 14 14 26 15 15 16 18 17 16 18 17 19 19 20 20 21 21 22 25 23
REMARK SMILES IDX 22 24 24 25 23 26
REMARK H PARENT
REMARK Flexibility Score: inf
ROOT
ATOM      1  C   UNL     1      -5.112   2.896  -4.523  1.00  0.00     0.268 C 
ENDROOT
BRANCH   1   2
ATOM      2  O   UNL     1      -4.366   3.910  -3.863  1.00  0.00    -0.461 OA
BRANCH   2   3
ATOM      3  C   UNL     1      -4.854   4.315  -2.654  1.00  0.00     0.310 C 
ATOM      4  O   UNL     1      -6.012   4.231  -2.271  1.00  0.00    -0.252 OA
BRANCH   3   5
ATOM      5  C   UNL     1      -3.791   4.899  -1.797  1.00  0.00     0.113 C 
ATOM      6  C   UNL     1      -2.365   4.592  -2.127  1.00  0.00     0.035 C 
ATOM      7  C   UNL     1      -2.992   4.017  -0.890  1.00  0.00    -0.014 C 
ATOM      8  C   UNL     1      -2.525   4.546   0.424  1.00  0.00     0.012 C 
ATOM      9  C   UNL     1      -3.360   2.573  -0.848  1.00  0.00     0.012 C 
BRANCH   6  10
ATOM     10  C   UNL     1      -1.388   5.666  -2.027  1.00  0.00     0.011 C 
ATOM     11  Cl  UNL     1      -2.153   6.879  -4.308  1.00  0.00    -0.071 Cl
ATOM     12  C   UNL     1      -1.201   6.685  -2.881  1.00  0.00     0.103 C 
ATOM     13  Cl  UNL     1       0.027   7.865  -2.578  1.00  0.00    -0.071 Cl
ENDBRANCH   6  10
ENDBRANCH   3   5
ENDBRANCH   2   3
ENDBRANCH   1   2
BRANCH   1  14
ATOM     14  C   UNL     1      -4.394   1.594  -4.404  1.00  0.00    -0.007 A 
ATOM     15  C   UNL     1      -3.011   1.576  -4.218  1.00  0.00     0.054 A 
ATOM     16  C   UNL     1      -5.104   0.396  -4.478  1.00  0.00     0.007 A 
ATOM     17  C   UNL     1      -2.340   0.358  -4.106  1.00  0.00     0.127 A 
ATOM     18  C   UNL     1      -4.433  -0.821  -4.367  1.00  0.00     0.004 A 
ATOM     19  C   UNL     1      -3.050  -0.839  -4.181  1.00  0.00     0.047 A 
BRANCH  17  20
ATOM     20  O   UNL     1      -0.991   0.339  -3.925  1.00  0.00    -0.457 OA
BRANCH  20  21
ATOM     21  C   UNL     1      -0.500   0.756  -2.700  1.00  0.00     0.127 A 
ATOM     22  C   UNL     1      -0.598  -0.093  -1.611  1.00  0.00     0.047 A 
ATOM     23  C   UNL     1       0.075   2.009  -2.594  1.00  0.00     0.047 A 
ATOM     24  C   UNL     1      -0.103   0.327  -0.377  1.00  0.00     0.004 A 
ATOM     25  C   UNL     1       0.570   2.428  -1.359  1.00  0.00     0.004 A 
ATOM     26  C   UNL     1       0.481   1.587  -0.250  1.00  0.00     0.000 A 
ENDBRANCH  20  21
ENDBRANCH  17  20
ENDBRANCH   1  14
TORSDOF 7
ENDMDL
MODEL 3
REMARK VINA RESULT:    -7.061      3.405      5.312
REMARK INTER + INTRA:         -12.091
REMARK INTER:                 -10.289
REMARK INTRA:                  -1.801
REMARK UNBOUND:                -2.141
REMARK SMILES CC1(C)[C@H](C=C(Cl)Cl)[C@H]1C(=O)OCc1cccc(Oc2ccccc2)c1
REMARK SMILES IDX 13 1 12 2 10 3 11 4 9 5 4 6 2 7 1 8 3 9 5 10 7 11 6 12 8 13
REMARK SMILES IDX 14 14 26 15 15 16 18 17 16 18 17 19 19 20 20 21 21 22 25 23
REMARK SMILES IDX 22 24 24 25 23 26
REMARK H PARENT
REMARK Flexibility Score: inf
ROOT
ATOM      1  C   UNL     1       0.825   3.343  -1.463  1.00  0.00     0.268 C 
ENDROOT
BRANCH   1   2
ATOM      2  O   UNL     1      -0.054   4.319  -2.008  1.00  0.00    -0.461 OA
BRANCH   2   3
ATOM      3  C   UNL     1      -0.099   5.513  -1.348  1.00  0.00     0.310 C 
ATOM      4  O   UNL     1       0.846   6.101  -0.840  1.00  0.00    -0.252 OA
BRANCH   3   5
ATOM      5  C   UNL     1      -1.476   6.066  -1.299  1.00  0.00     0.113 C 
ATOM      6  C   UNL     1      -2.356   5.885  -2.495  1.00  0.00     0.035 C 
ATOM      7  C   UNL     1      -1.838   7.248  -2.142  1.00  0.00    -0.014 C 
ATOM      8  C   UNL     1      -2.822   8.244  -1.627  1.00  0.00     0.012 C 
ATOM      9  C   UNL     1      -0.749   7.862  -2.956  1.00  0.00     0.012 C 
BRANCH   6  10
ATOM     10  C   UNL     1      -3.755   5.548  -2.277  1.00  0.00     0.011 C 
ATOM     11  Cl  UNL     1      -3.251   3.056  -1.385  1.00  0.00    -0.071 Cl
ATOM     12  C   UNL     1      -4.257   4.393  -1.814  1.00  0.00     0.103 C 
ATOM     13  Cl  UNL     1      -5.964   4.193  -1.629  1.00  0.00    -0.071 Cl
ENDBRANCH   6  10
ENDBRANCH   3   5
ENDBRANCH   2   3
ENDBRANCH   1   2
BRANCH   1  14
ATOM     14  C   UNL     1       0.253   1.983  -1.679  1.00  0.00    -0.007 A 
ATOM     15  C   UNL     1      -0.336   1.661  -2.902  1.00  0.00     0.054 A 
ATOM     16  C   UNL     1       0.307   1.034  -0.659  1.00  0.00     0.007 A 
ATOM     17  C   UNL     1      -0.871   0.388  -3.104  1.00  0.00     0.127 A 
ATOM     18  C   UNL     1      -0.229  -0.238  -0.861  1.00  0.00     0.004 A 
ATOM     19  C   UNL     1      -0.817  -0.560  -2.084  1.00  0.00     0.047 A 
BRANCH  17  20
ATOM     20  O   UNL     1      -1.445   0.073  -4.297  1.00  0.00    -0.457 OA
BRANCH  20  21
ATOM     21  C   UNL     1      -2.821   0.184  -4.399  1.00  0.00     0.127 A 
ATOM     22  C   UNL     1      -3.388   1.439  -4.537  1.00  0.00     0.047 A 
ATOM     23  C   UNL     1      -3.594  -0.962  -4.360  1.00  0.00     0.047 A 
ATOM     24  C   UNL     1      -4.774   1.550  -4.639  1.00  0.00     0.004 A 
ATOM     25  C   UNL     1      -4.981  -0.849  -4.463  1.00  0.00     0.004 A 
ATOM     26  C   UNL     1      -5.571   0.407  -4.603  1.00  0.00     0.000 A 
ENDBRANCH  20  21
ENDBRANCH  17  20
ENDBRANCH   1  14
TORSDOF 7
ENDMDL
MODEL 4
REMARK VINA RESULT:    -7.052      2.742      3.859
REMARK INTER + INTRA:         -12.078
REMARK INTER:                  -9.127
REMARK INTRA:                  -2.951
REMARK UNBOUND:                -2.141
REMARK SMILES CC1(C)[C@H](C=C(Cl)Cl)[C@H]1C(=O)OCc1cccc(Oc2ccccc2)c1
REMARK SMILES IDX 13 1 12 2 10 3 11 4 9 5 4 6 2 7 1 8 3 9 5 10 7 11 6 12 8 13
REMARK SMILES IDX 14 14 26 15 15 16 18 17 16 18 17 19 19 20 20 21 21 22 25 23
REMARK SMILES IDX 22 24 24 25 23 26
REMARK H PARENT
REMARK Flexibility Score: inf
ROOT
ATOM      1  C   UNL     1      -0.184   1.207  -1.176  1.00  0.00     0.268 C 
ENDROOT
BRANCH   1   2
ATOM      2  O   UNL     1      -0.302   2.623  -1.146  1.00  0.00    -0.461 OA
BRANCH   2   3
ATOM      3  C   UNL     1       0.755   3.319  -1.655  1.00  0.00     0.310 C 
ATOM      4  O   UNL     1       1.933   2.993  -1.607  1.00  0.00    -0.252 OA
BRANCH   3   5
ATOM      5  C   UNL     1       0.324   4.579  -2.312  1.00  0.00     0.113 C 
ATOM      6  C   UNL     1      -1.136   4.782  -2.567  1.00  0.00     0.035 C 
ATOM      7  C   UNL     1      -0.197   4.552  -3.714  1.00  0.00    -0.014 C 
ATOM      8  C   UNL     1       0.074   5.705  -4.621  1.00  0.00     0.012 C 
ATOM      9  C   UNL     1      -0.192   3.236  -4.416  1.00  0.00     0.012 C 
BRANCH   6  10
ATOM     10  C   UNL     1      -1.700   6.103  -2.329  1.00  0.00     0.011 C 
ATOM     11  Cl  UNL     1      -2.675   5.496   0.108  1.00  0.00    -0.071 Cl
ATOM     12  C   UNL     1      -2.369   6.524  -1.245  1.00  0.00     0.103 C 
ATOM     13  Cl  UNL     1      -2.964   8.146  -1.160  1.00  0.00    -0.071 Cl
ENDBRANCH   6  10
ENDBRANCH   3   5
ENDBRANCH   2   3
ENDBRANCH   1   2
BRANCH   1  14
ATOM     14  C   UNL     1      -1.284   0.634  -2.005  1.00  0.00    -0.007 A 
ATOM     15  C   UNL     1      -2.526   1.266  -2.046  1.00  0.00     0.054 A 
ATOM     16  C   UNL     1      -1.069  -0.532  -2.739  1.00  0.00     0.007 A 
ATOM     17  C   UNL     1      -3.555   0.730  -2.822  1.00  0.00     0.127 A 
ATOM     18  C   UNL     1      -2.097  -1.068  -3.513  1.00  0.00     0.004 A 
ATOM     19  C   UNL     1      -3.340  -0.436  -3.555  1.00  0.00     0.047 A 
BRANCH  17  20
ATOM     20  O   UNL     1      -4.768   1.346  -2.863  1.00  0.00    -0.457 OA
BRANCH  20  21
ATOM     21  C   UNL     1      -4.795   2.696  -3.170  1.00  0.00     0.127 A 
ATOM     22  C   UNL     1      -4.191   3.133  -4.336  1.00  0.00     0.047 A 
ATOM     23  C   UNL     1      -5.425   3.572  -2.306  1.00  0.00     0.047 A 
ATOM     24  C   UNL     1      -4.218   4.492  -4.645  1.00  0.00     0.004 A 
ATOM     25  C   UNL     1      -5.452   4.932  -2.616  1.00  0.00     0.004 A 
ATOM     26  C   UNL     1      -4.849   5.392  -3.787  1.00  0.00     0.000 A 
ENDBRANCH  20  21
ENDBRANCH  17  20
ENDBRANCH   1  14
TORSDOF 7
ENDMDL
MODEL 5
REMARK VINA RESULT:    -7.030      3.861      6.165
REMARK INTER + INTRA:         -12.048
REMARK INTER:                  -9.872
REMARK INTRA:                  -2.176
REMARK UNBOUND:                -2.141
REMARK SMILES CC1(C)[C@H](C=C(Cl)Cl)[C@H]1C(=O)OCc1cccc(Oc2ccccc2)c1
REMARK SMILES IDX 13 1 12 2 10 3 11 4 9 5 4 6 2 7 1 8 3 9 5 10 7 11 6 12 8 13
REMARK SMILES IDX 14 14 26 15 15 16 18 17 16 18 17 19 19 20 20 21 21 22 25 23
REMARK SMILES IDX 22 24 24 25 23 26
REMARK H PARENT
REMARK Flexibility Score: inf
ROOT
ATOM      1  C   UNL     1      -4.553   2.038  -4.177  1.00  0.00     0.268 C 
ENDROOT
BRANCH   1   2
ATOM      2  O   UNL     1      -3.166   2.054  -3.864  1.00  0.00    -0.461 OA
BRANCH   2   3
ATOM      3  C   UNL     1      -2.833   1.604  -2.620  1.00  0.00     0.310 C 
ATOM      4  O   UNL     1      -3.358   0.680  -2.014  1.00  0.00    -0.252 OA
BRANCH   3   5
ATOM      5  C   UNL     1      -1.709   2.378  -2.034  1.00  0.00     0.113 C 
ATOM      6  C   UNL     1      -1.332   2.114  -0.611  1.00  0.00     0.035 C 
ATOM      7  C   UNL     1      -1.978   3.414  -0.990  1.00  0.00    -0.014 C 
ATOM      8  C   UNL     1      -1.132   4.642  -0.938  1.00  0.00     0.012 C 
ATOM      9  C   UNL     1      -3.404   3.666  -0.632  1.00  0.00     0.012 C 
BRANCH   6  10
ATOM     10  C   UNL     1       0.083   2.065  -0.270  1.00  0.00     0.011 C 
ATOM     11  Cl  UNL     1       0.197  -0.624  -0.164  1.00  0.00    -0.071 Cl
ATOM     12  C   UNL     1       0.837   0.976  -0.058  1.00  0.00     0.103 C 
ATOM     13  Cl  UNL     1       2.511   1.136   0.342  1.00  0.00    -0.071 Cl
ENDBRANCH   6  10
ENDBRANCH   3   5
ENDBRANCH   2   3
ENDBRANCH   1   2
BRANCH   1  14
ATOM     14  C   UNL     1      -5.210   3.238  -3.583  1.00  0.00    -0.007 A 
ATOM     15  C   UNL     1      -4.761   4.515  -3.916  1.00  0.00     0.054 A 
ATOM     16  C   UNL     1      -6.274   3.081  -2.694  1.00  0.00     0.007 A 
ATOM     17  C   UNL     1      -5.376   5.637  -3.360  1.00  0.00     0.127 A 
ATOM     18  C   UNL     1      -6.888   4.203  -2.138  1.00  0.00     0.004 A 
ATOM     19  C   UNL     1      -6.439   5.481  -2.472  1.00  0.00     0.047 A 
BRANCH  17  20
ATOM     20  O   UNL     1      -4.938   6.884  -3.685  1.00  0.00    -0.457 OA
BRANCH  20  21
ATOM     21  C   UNL     1      -3.688   7.267  -3.232  1.00  0.00     0.127 A 
ATOM     22  C   UNL     1      -3.548   7.696  -1.923  1.00  0.00     0.047 A 
ATOM     23  C   UNL     1      -2.610   7.211  -4.096  1.00  0.00     0.047 A 
ATOM     24  C   UNL     1      -2.289   8.082  -1.466  1.00  0.00     0.004 A 
ATOM     25  C   UNL     1      -1.350   7.596  -3.637  1.00  0.00     0.004 A 
ATOM     26  C   UNL     1      -1.190   8.031  -2.322  1.00  0.00     0.000 A 
ENDBRANCH  20  21
ENDBRANCH  17  20
ENDBRANCH   1  14
TORSDOF 7
ENDMDL
