MODEL 1
REMARK VINA RESULT:    -6.440      0.000      0.000
REMARK INTER + INTRA:         -12.281
REMARK INTER:                  -9.076
REMARK INTRA:                  -3.205
REMARK UNBOUND:                -3.205
REMARK SMILES CC1(C)[C@H](C=C(Cl)Cl)[C@H]1C(=O)OCc1cccc(Oc2ccccc2)c1
REMARK SMILES IDX 13 1 12 2 10 3 11 4 9 5 4 6 2 7 1 8 3 9 5 10 7 11 6 12 8 13
REMARK SMILES IDX 14 14 26 15 15 16 18 17 16 18 17 19 19 20 20 21 21 22 25 23
REMARK SMILES IDX 22 24 24 25 23 26
REMARK H PARENT
REMARK Flexibility Score: inf
ROOT
ATOM      1  C   UNL     1      -0.499   6.704  -3.337  1.00  0.00     0.268 C 
ENDROOT
BRANCH   1   2
ATOM      2  O   UNL     1      -0.345   5.329  -3.007  1.00  0.00    -0.461 OA
BRANCH   2   3
ATOM      3  C   UNL     1      -0.072   5.059  -1.697  1.00  0.00     0.310 C 
ATOM      4  O   UNL     1       0.573   5.758  -0.928  1.00  0.00    -0.252 OA
BRANCH   3   5
ATOM      5  C   UNL     1      -0.664   3.768  -1.264  1.00  0.00     0.113 C 
ATOM      6  C   UNL     1      -1.868   3.260  -1.992  1.00  0.00     0.035 C 
ATOM      7  C   UNL     1      -1.993   3.746  -0.578  1.00  0.00    -0.014 C 
ATOM      8  C   UNL     1      -2.258   2.726   0.477  1.00  0.00     0.012 C 
ATOM      9  C   UNL     1      -2.637   5.063  -0.301  1.00  0.00     0.012 C 
BRANCH   6  10
ATOM     10  C   UNL     1      -1.942   1.837  -2.292  1.00  0.00     0.011 C 
ATOM     11  Cl  UNL     1      -0.431   1.997  -4.517  1.00  0.00    -0.071 Cl
ATOM     12  C   UNL     1      -1.381   1.188  -3.324  1.00  0.00     0.103 C 
ATOM     13  Cl  UNL     1      -1.595  -0.519  -3.502  1.00  0.00    -0.071 Cl
ENDBRANCH   6  10
ENDBRANCH   3   5
ENDBRANCH   2   3
ENDBRANCH   1   2
BRANCH   1  14
ATOM     14  C   UNL     1      -1.923   7.103  -3.148  1.00  0.00    -0.007 A 
ATOM     15  C   UNL     1      -2.943   6.327  -3.699  1.00  0.00     0.054 A 
ATOM     16  C   UNL     1      -2.235   8.251  -2.421  1.00  0.00     0.007 A 
ATOM     17  C   UNL     1      -4.275   6.700  -3.521  1.00  0.00     0.127 A 
ATOM     18  C   UNL     1      -3.567   8.625  -2.244  1.00  0.00     0.004 A 
ATOM     19  C   UNL     1      -4.587   7.849  -2.795  1.00  0.00     0.047 A 
BRANCH  17  20
ATOM     20  O   UNL     1      -5.271   5.943  -4.058  1.00  0.00    -0.457 OA
BRANCH  20  21
ATOM     21  C   UNL     1      -5.326   4.606  -3.705  1.00  0.00     0.127 A 
ATOM     22  C   UNL     1      -5.048   3.645  -4.662  1.00  0.00     0.047 A 
ATOM     23  C   UNL     1      -5.657   4.264  -2.407  1.00  0.00     0.047 A 
ATOM     24  C   UNL     1      -5.103   2.298  -4.306  1.00  0.00     0.004 A 
ATOM     25  C   UNL     1      -5.712   2.916  -2.052  1.00  0.00     0.004 A 
ATOM     26  C   UNL     1      -5.434   1.933  -3.002  1.00  0.00     0.000 A 
ENDBRANCH  20  21
ENDBRANCH  17  20
ENDBRANCH   1  14
TORSDOF 7
ENDMDL
MODEL 2
REMARK VINA RESULT:    -6.181      2.486      5.014
REMARK INTER + INTRA:         -11.916
REMARK INTER:                  -9.767
REMARK INTRA:                  -2.149
REMARK UNBOUND:                -3.205
REMARK SMILES CC1(C)[C@H](C=C(Cl)Cl)[C@H]1C(=O)OCc1cccc(Oc2ccccc2)c1
REMARK SMILES IDX 13 1 12 2 10 3 11 4 9 5 4 6 2 7 1 8 3 9 5 10 7 11 6 12 8 13
REMARK SMILES IDX 14 14 26 15 15 16 18 17 16 18 17 19 19 20 20 21 21 22 25 23
REMARK SMILES IDX 22 24 24 25 23 26
REMARK H PARENT
REMARK Flexibility Score: inf
ROOT
ATOM      1  C   UNL     1       1.206   3.690  -2.159  1.00  0.00     0.268 C 
ENDROOT
BRANCH   1   2
ATOM      2  O   UNL     1       0.275   4.704  -2.514  1.00  0.00    -0.461 OA
BRANCH   2   3
ATOM      3  C   UNL     1       0.107   5.703  -1.600  1.00  0.00     0.310 C 
ATOM      4  O   UNL     1       0.975   6.204  -0.900  1.00  0.00    -0.252 OA
BRANCH   3   5
ATOM      5  C   UNL     1      -1.306   6.155  -1.528  1.00  0.00     0.113 C 
ATOM      6  C   UNL     1      -2.191   5.909  -2.709  1.00  0.00     0.035 C 
ATOM      7  C   UNL     1      -1.768   7.307  -2.363  1.00  0.00    -0.014 C 
ATOM      8  C   UNL     1      -2.813   8.228  -1.830  1.00  0.00     0.012 C 
ATOM      9  C   UNL     1      -0.741   7.998  -3.195  1.00  0.00     0.012 C 
BRANCH   6  10
ATOM     10  C   UNL     1      -3.558   5.471  -2.467  1.00  0.00     0.011 C 
ATOM     11  Cl  UNL     1      -2.847   3.157  -1.284  1.00  0.00    -0.071 Cl
ATOM     12  C   UNL     1      -3.961   4.335  -1.877  1.00  0.00     0.103 C 
ATOM     13  Cl  UNL     1      -5.647   4.000  -1.687  1.00  0.00    -0.071 Cl
ENDBRANCH   6  10
ENDBRANCH   3   5
ENDBRANCH   2   3
ENDBRANCH   1   2
BRANCH   1  14
ATOM     14  C   UNL     1       0.508   2.375  -2.095  1.00  0.00    -0.007 A 
ATOM     15  C   UNL     1      -0.136   1.871  -3.225  1.00  0.00     0.054 A 
ATOM     16  C   UNL     1       0.500   1.647  -0.905  1.00  0.00     0.007 A 
ATOM     17  C   UNL     1      -0.789   0.640  -3.164  1.00  0.00     0.127 A 
ATOM     18  C   UNL     1      -0.154   0.417  -0.844  1.00  0.00     0.004 A 
ATOM     19  C   UNL     1      -0.798  -0.087  -1.974  1.00  0.00     0.047 A 
BRANCH  17  20
ATOM     20  O   UNL     1      -1.418   0.148  -4.267  1.00  0.00    -0.457 OA
BRANCH  20  21
ATOM     21  C   UNL     1      -2.798   0.238  -4.316  1.00  0.00     0.127 A 
ATOM     22  C   UNL     1      -3.388   1.487  -4.413  1.00  0.00     0.047 A 
ATOM     23  C   UNL     1      -3.552  -0.919  -4.266  1.00  0.00     0.047 A 
ATOM     24  C   UNL     1      -4.778   1.579  -4.463  1.00  0.00     0.004 A 
ATOM     25  C   UNL     1      -4.944  -0.826  -4.315  1.00  0.00     0.004 A 
ATOM     26  C   UNL     1      -5.556   0.423  -4.415  1.00  0.00     0.000 A 
ENDBRANCH  20  21
ENDBRANCH  17  20
ENDBRANCH   1  14
TORSDOF 7
ENDMDL
MODEL 3
REMARK VINA RESULT:    -6.061      2.934      5.372
REMARK INTER + INTRA:         -11.746
REMARK INTER:                 -10.095
REMARK INTRA:                  -1.652
REMARK UNBOUND:                -3.205
REMARK SMILES CC1(C)[C@H](C=C(Cl)Cl)[C@H]1C(=O)OCc1cccc(Oc2ccccc2)c1
REMARK SMILES IDX 13 1 12 2 10 3 11 4 9 5 4 6 2 7 1 8 3 9 5 10 7 11 6 12 8 13
REMARK SMILES IDX 14 14 26 15 15 16 18 17 16 18 17 19 19 20 20 21 21 22 25 23
REMARK SMILES IDX 22 24 24 25 23 26
REMARK H PARENT
REMARK Flexibility Score: inf
ROOT
ATOM      1  C   UNL     1       1.416   3.677  -2.344  1.00  0.00     0.268 C 
ENDROOT
BRANCH   1   2
ATOM      2  O   UNL     1       0.554   4.696  -2.833  1.00  0.00    -0.461 OA
BRANCH   2   3
ATOM      3  C   UNL     1      -0.006   5.505  -1.886  1.00  0.00     0.310 C 
ATOM      4  O   UNL     1       0.552   5.972  -0.903  1.00  0.00    -0.252 OA
BRANCH   3   5
ATOM      5  C   UNL     1      -1.436   5.784  -2.174  1.00  0.00     0.113 C 
ATOM      6  C   UNL     1      -2.236   6.518  -1.145  1.00  0.00     0.035 C 
ATOM      7  C   UNL     1      -2.507   5.066  -1.415  1.00  0.00    -0.014 C 
ATOM      8  C   UNL     1      -3.787   4.723  -2.099  1.00  0.00     0.012 C 
ATOM      9  C   UNL     1      -2.068   4.035  -0.431  1.00  0.00     0.012 C 
BRANCH   6  10
ATOM     10  C   UNL     1      -3.171   7.538  -1.598  1.00  0.00     0.011 C 
ATOM     11  Cl  UNL     1      -1.505   8.563  -3.451  1.00  0.00    -0.071 Cl
ATOM     12  C   UNL     1      -2.979   8.456  -2.559  1.00  0.00     0.103 C 
ATOM     13  Cl  UNL     1      -4.225   9.590  -2.946  1.00  0.00    -0.071 Cl
ENDBRANCH   6  10
ENDBRANCH   3   5
ENDBRANCH   2   3
ENDBRANCH   1   2
BRANCH   1  14
ATOM     14  C   UNL     1       0.652   2.403  -2.208  1.00  0.00    -0.007 A 
ATOM     15  C   UNL     1      -0.030   1.879  -3.306  1.00  0.00     0.054 A 
ATOM     16  C   UNL     1       0.621   1.736  -0.983  1.00  0.00     0.007 A 
ATOM     17  C   UNL     1      -0.744   0.688  -3.178  1.00  0.00     0.127 A 
ATOM     18  C   UNL     1      -0.094   0.546  -0.856  1.00  0.00     0.004 A 
ATOM     19  C   UNL     1      -0.776   0.022  -1.954  1.00  0.00     0.047 A 
BRANCH  17  20
ATOM     20  O   UNL     1      -1.411   0.176  -4.249  1.00  0.00    -0.457 OA
BRANCH  20  21
ATOM     21  C   UNL     1      -2.793   0.256  -4.247  1.00  0.00     0.127 A 
ATOM     22  C   UNL     1      -3.395   1.501  -4.192  1.00  0.00     0.047 A 
ATOM     23  C   UNL     1      -3.535  -0.909  -4.300  1.00  0.00     0.047 A 
ATOM     24  C   UNL     1      -4.787   1.581  -4.189  1.00  0.00     0.004 A 
ATOM     25  C   UNL     1      -4.929  -0.828  -4.298  1.00  0.00     0.004 A 
ATOM     26  C   UNL     1      -5.554   0.418  -4.243  1.00  0.00     0.000 A 
ENDBRANCH  20  21
ENDBRANCH  17  20
ENDBRANCH   1  14
TORSDOF 7
ENDMDL
MODEL 4
REMARK VINA RESULT:    -6.038      2.410      4.692
REMARK INTER + INTRA:         -11.714
REMARK INTER:                  -9.624
REMARK INTRA:                  -2.090
REMARK UNBOUND:                -3.205
REMARK SMILES CC1(C)[C@H](C=C(Cl)Cl)[C@H]1C(=O)OCc1cccc(Oc2ccccc2)c1
REMARK SMILES IDX 13 1 12 2 10 3 11 4 9 5 4 6 2 7 1 8 3 9 5 10 7 11 6 12 8 13
REMARK SMILES IDX 14 14 26 15 15 16 18 17 16 18 17 19 19 20 20 21 21 22 25 23
REMARK SMILES IDX 22 24 24 25 23 26
REMARK H PARENT
REMARK Flexibility Score: inf
ROOT
ATOM      1  C   UNL     1      -4.784   1.753  -3.840  1.00  0.00     0.268 C 
ENDROOT
BRANCH   1   2
ATOM      2  O   UNL     1      -3.364   1.795  -3.903  1.00  0.00    -0.461 OA
BRANCH   2   3
ATOM      3  C   UNL     1      -2.706   1.204  -2.863  1.00  0.00     0.310 C 
ATOM      4  O   UNL     1      -2.922   0.093  -2.401  1.00  0.00    -0.252 OA
BRANCH   3   5
ATOM      5  C   UNL     1      -1.642   2.081  -2.313  1.00  0.00     0.113 C 
ATOM      6  C   UNL     1      -0.984   1.680  -1.031  1.00  0.00     0.035 C 
ATOM      7  C   UNL     1      -1.893   2.874  -1.070  1.00  0.00    -0.014 C 
ATOM      8  C   UNL     1      -1.265   4.219  -0.916  1.00  0.00     0.012 C 
ATOM      9  C   UNL     1      -3.257   2.788  -0.472  1.00  0.00     0.012 C 
BRANCH   6  10
ATOM     10  C   UNL     1       0.456   1.853  -0.911  1.00  0.00     0.011 C 
ATOM     11  Cl  UNL     1       0.766  -0.101   0.918  1.00  0.00    -0.071 Cl
ATOM     12  C   UNL     1       1.301   1.166  -0.126  1.00  0.00     0.103 C 
ATOM     13  Cl  UNL     1       2.991   1.533  -0.129  1.00  0.00    -0.071 Cl
ENDBRANCH   6  10
ENDBRANCH   3   5
ENDBRANCH   2   3
ENDBRANCH   1   2
BRANCH   1  14
ATOM     14  C   UNL     1      -5.299   3.074  -3.378  1.00  0.00    -0.007 A 
ATOM     15  C   UNL     1      -4.731   4.252  -3.862  1.00  0.00     0.054 A 
ATOM     16  C   UNL     1      -6.350   3.130  -2.463  1.00  0.00     0.007 A 
ATOM     17  C   UNL     1      -5.214   5.487  -3.429  1.00  0.00     0.127 A 
ATOM     18  C   UNL     1      -6.832   4.365  -2.030  1.00  0.00     0.004 A 
ATOM     19  C   UNL     1      -6.264   5.544  -2.514  1.00  0.00     0.047 A 
BRANCH  17  20
ATOM     20  O   UNL     1      -4.659   6.638  -3.901  1.00  0.00    -0.457 OA
BRANCH  20  21
ATOM     21  C   UNL     1      -3.435   7.022  -3.382  1.00  0.00     0.127 A 
ATOM     22  C   UNL     1      -3.382   7.564  -2.109  1.00  0.00     0.047 A 
ATOM     23  C   UNL     1      -2.296   6.857  -4.148  1.00  0.00     0.047 A 
ATOM     24  C   UNL     1      -2.149   7.952  -1.587  1.00  0.00     0.004 A 
ATOM     25  C   UNL     1      -1.062   7.245  -3.624  1.00  0.00     0.004 A 
ATOM     26  C   UNL     1      -0.989   7.792  -2.344  1.00  0.00     0.000 A 
ENDBRANCH  20  21
ENDBRANCH  17  20
ENDBRANCH   1  14
TORSDOF 7
ENDMDL
MODEL 5
REMARK VINA RESULT:    -5.905     13.946     17.442
REMARK INTER + INTRA:         -11.526
REMARK INTER:                 -10.471
REMARK INTRA:                  -1.055
REMARK UNBOUND:                -3.205
REMARK SMILES CC1(C)[C@H](C=C(Cl)Cl)[C@H]1C(=O)OCc1cccc(Oc2ccccc2)c1
REMARK SMILES IDX 13 1 12 2 10 3 11 4 9 5 4 6 2 7 1 8 3 9 5 10 7 11 6 12 8 13
REMARK SMILES IDX 14 14 26 15 15 16 18 17 16 18 17 19 19 20 20 21 21 22 25 23
REMARK SMILES IDX 22 24 24 25 23 26
REMARK H PARENT
REMARK Flexibility Score: inf
ROOT
ATOM      1  C   UNL     1       3.389  -4.696  10.143  1.00  0.00     0.268 C 
ENDROOT
BRANCH   1   2
ATOM      2  O   UNL     1       2.723  -5.801   9.543  1.00  0.00    -0.461 OA
BRANCH   2   3
ATOM      3  C   UNL     1       1.508  -5.529   8.985  1.00  0.00     0.310 C 
ATOM      4  O   UNL     1       0.573  -6.308   8.860  1.00  0.00    -0.252 OA
BRANCH   3   5
ATOM      5  C   UNL     1       1.417  -4.124   8.515  1.00  0.00     0.113 C 
ATOM      6  C   UNL     1       0.109  -3.641   7.974  1.00  0.00     0.035 C 
ATOM      7  C   UNL     1       1.280  -3.829   7.055  1.00  0.00    -0.014 C 
ATOM      8  C   UNL     1       1.914  -2.602   6.491  1.00  0.00     0.012 C 
ATOM      9  C   UNL     1       1.311  -4.991   6.121  1.00  0.00     0.012 C 
BRANCH   6  10
ATOM     10  C   UNL     1      -0.336  -2.303   8.337  1.00  0.00     0.011 C 
ATOM     11  Cl  UNL     1      -2.738  -3.105   9.256  1.00  0.00    -0.071 Cl
ATOM     12  C   UNL     1      -1.510  -1.950   8.883  1.00  0.00     0.103 C 
ATOM     13  Cl  UNL     1      -1.846  -0.291   9.238  1.00  0.00    -0.071 Cl
ENDBRANCH   6  10
ENDBRANCH   3   5
ENDBRANCH   2   3
ENDBRANCH   1   2
BRANCH   1  14
ATOM     14  C   UNL     1       4.864  -4.885  10.031  1.00  0.00    -0.007 A 
ATOM     15  C   UNL     1       5.377  -6.080   9.526  1.00  0.00     0.054 A 
ATOM     16  C   UNL     1       5.730  -3.867  10.431  1.00  0.00     0.007 A 
ATOM     17  C   UNL     1       6.757  -6.256   9.421  1.00  0.00     0.127 A 
ATOM     18  C   UNL     1       7.109  -4.044  10.326  1.00  0.00     0.004 A 
ATOM     19  C   UNL     1       7.622  -5.239   9.821  1.00  0.00     0.047 A 
BRANCH  17  20
ATOM     20  O   UNL     1       7.259  -7.422   8.928  1.00  0.00    -0.457 OA
BRANCH  20  21
ATOM     21  C   UNL     1       7.926  -7.375   7.716  1.00  0.00     0.127 A 
ATOM     22  C   UNL     1       9.179  -7.953   7.615  1.00  0.00     0.047 A 
ATOM     23  C   UNL     1       7.325  -6.751   6.639  1.00  0.00     0.047 A 
ATOM     24  C   UNL     1       9.852  -7.906   6.394  1.00  0.00     0.004 A 
ATOM     25  C   UNL     1       7.998  -6.705   5.417  1.00  0.00     0.004 A 
ATOM     26  C   UNL     1       9.261  -7.283   5.295  1.00  0.00     0.000 A 
ENDBRANCH  20  21
ENDBRANCH  17  20
ENDBRANCH   1  14
TORSDOF 7
ENDMDL
