MODEL 1
REMARK VINA RESULT:    -6.540      0.000      0.000
REMARK INTER + INTRA:         -12.384
REMARK INTER:                  -9.216
REMARK INTRA:                  -3.168
REMARK UNBOUND:                -3.168
REMARK SMILES CC1(C)[C@H](C=C(Cl)Cl)[C@H]1C(=O)OCc1cccc(Oc2ccccc2)c1
REMARK SMILES IDX 13 1 12 2 10 3 11 4 9 5 4 6 2 7 1 8 3 9 5 10 7 11 6 12 8 13
REMARK SMILES IDX 14 14 26 15 15 16 18 17 16 18 17 19 19 20 20 21 21 22 25 23
REMARK SMILES IDX 22 24 24 25 23 26
REMARK H PARENT
REMARK Flexibility Score: inf
ROOT
ATOM      1  C   UNL     1      -0.347   6.645  -3.351  1.00  0.00     0.268 C 
ENDROOT
BRANCH   1   2
ATOM      2  O   UNL     1      -0.158   5.277  -3.009  1.00  0.00    -0.461 OA
BRANCH   2   3
ATOM      3  C   UNL     1       0.091   5.023  -1.692  1.00  0.00     0.310 C 
ATOM      4  O   UNL     1       0.706   5.740  -0.914  1.00  0.00    -0.252 OA
BRANCH   3   5
ATOM      5  C   UNL     1      -0.487   3.725  -1.260  1.00  0.00     0.113 C 
ATOM      6  C   UNL     1      -1.655   3.182  -2.020  1.00  0.00     0.035 C 
ATOM      7  C   UNL     1      -1.837   3.683  -0.617  1.00  0.00    -0.014 C 
ATOM      8  C   UNL     1      -2.114   2.670   0.443  1.00  0.00     0.012 C 
ATOM      9  C   UNL     1      -2.518   4.988  -0.378  1.00  0.00     0.012 C 
BRANCH   6  10
ATOM     10  C   UNL     1      -1.690   1.754  -2.303  1.00  0.00     0.011 C 
ATOM     11  Cl  UNL     1       0.005   1.898  -4.393  1.00  0.00    -0.071 Cl
ATOM     12  C   UNL     1      -1.036   1.096  -3.272  1.00  0.00     0.103 C 
ATOM     13  Cl  UNL     1      -1.216  -0.616  -3.442  1.00  0.00    -0.071 Cl
ENDBRANCH   6  10
ENDBRANCH   3   5
ENDBRANCH   2   3
ENDBRANCH   1   2
BRANCH   1  14
ATOM     14  C   UNL     1      -1.780   7.011  -3.158  1.00  0.00    -0.007 A 
ATOM     15  C   UNL     1      -2.783   6.214  -3.710  1.00  0.00     0.054 A 
ATOM     16  C   UNL     1      -2.116   8.148  -2.424  1.00  0.00     0.007 A 
ATOM     17  C   UNL     1      -4.123   6.557  -3.528  1.00  0.00     0.127 A 
ATOM     18  C   UNL     1      -3.455   8.491  -2.244  1.00  0.00     0.004 A 
ATOM     19  C   UNL     1      -4.459   7.695  -2.796  1.00  0.00     0.047 A 
BRANCH  17  20
ATOM     20  O   UNL     1      -5.103   5.780  -4.067  1.00  0.00    -0.457 OA
BRANCH  20  21
ATOM     21  C   UNL     1      -5.130   4.441  -3.716  1.00  0.00     0.127 A 
ATOM     22  C   UNL     1      -4.780   3.491  -4.659  1.00  0.00     0.047 A 
ATOM     23  C   UNL     1      -5.505   4.088  -2.433  1.00  0.00     0.047 A 
ATOM     24  C   UNL     1      -4.807   2.142  -4.306  1.00  0.00     0.004 A 
ATOM     25  C   UNL     1      -5.532   2.738  -2.080  1.00  0.00     0.004 A 
ATOM     26  C   UNL     1      -5.182   1.766  -3.017  1.00  0.00     0.000 A 
ENDBRANCH  20  21
ENDBRANCH  17  20
ENDBRANCH   1  14
TORSDOF 7
ENDMDL
MODEL 2
REMARK VINA RESULT:    -6.380      3.396      5.429
REMARK INTER + INTRA:         -12.159
REMARK INTER:                  -9.996
REMARK INTRA:                  -2.163
REMARK UNBOUND:                -3.168
REMARK SMILES CC1(C)[C@H](C=C(Cl)Cl)[C@H]1C(=O)OCc1cccc(Oc2ccccc2)c1
REMARK SMILES IDX 13 1 12 2 10 3 11 4 9 5 4 6 2 7 1 8 3 9 5 10 7 11 6 12 8 13
REMARK SMILES IDX 14 14 26 15 15 16 18 17 16 18 17 19 19 20 20 21 21 22 25 23
REMARK SMILES IDX 22 24 24 25 23 26
REMARK H PARENT
REMARK Flexibility Score: inf
ROOT
ATOM      1  C   UNL     1      -2.819   3.676   0.153  1.00  0.00     0.268 C 
ENDROOT
BRANCH   1   2
ATOM      2  O   UNL     1      -2.362   5.000  -0.093  1.00  0.00    -0.461 OA
BRANCH   2   3
ATOM      3  C   UNL     1      -1.238   5.108  -0.859  1.00  0.00     0.310 C 
ATOM      4  O   UNL     1      -0.255   4.383  -0.816  1.00  0.00    -0.252 OA
BRANCH   3   5
ATOM      5  C   UNL     1      -1.321   6.249  -1.805  1.00  0.00     0.113 C 
ATOM      6  C   UNL     1      -2.653   6.581  -2.401  1.00  0.00     0.035 C 
ATOM      7  C   UNL     1      -1.567   6.000  -3.259  1.00  0.00    -0.014 C 
ATOM      8  C   UNL     1      -0.941   6.897  -4.274  1.00  0.00     0.012 C 
ATOM      9  C   UNL     1      -1.651   4.578  -3.701  1.00  0.00     0.012 C 
BRANCH   6  10
ATOM     10  C   UNL     1      -3.022   7.983  -2.527  1.00  0.00     0.011 C 
ATOM     11  Cl  UNL     1      -5.652   7.497  -2.846  1.00  0.00    -0.071 Cl
ATOM     12  C   UNL     1      -4.248   8.494  -2.717  1.00  0.00     0.103 C 
ATOM     13  Cl  UNL     1      -4.474  10.203  -2.844  1.00  0.00    -0.071 Cl
ENDBRANCH   6  10
ENDBRANCH   3   5
ENDBRANCH   2   3
ENDBRANCH   1   2
BRANCH   1  14
ATOM     14  C   UNL     1      -3.753   3.263  -0.934  1.00  0.00    -0.007 A 
ATOM     15  C   UNL     1      -4.863   4.052  -1.237  1.00  0.00     0.054 A 
ATOM     16  C   UNL     1      -3.515   2.090  -1.650  1.00  0.00     0.007 A 
ATOM     17  C   UNL     1      -5.736   3.666  -2.254  1.00  0.00     0.127 A 
ATOM     18  C   UNL     1      -4.387   1.704  -2.667  1.00  0.00     0.004 A 
ATOM     19  C   UNL     1      -5.498   2.493  -2.969  1.00  0.00     0.047 A 
BRANCH  17  20
ATOM     20  O   UNL     1      -6.820   4.435  -2.549  1.00  0.00    -0.457 OA
BRANCH  20  21
ATOM     21  C   UNL     1      -7.840   4.496  -1.615  1.00  0.00     0.127 A 
ATOM     22  C   UNL     1      -8.184   5.722  -1.073  1.00  0.00     0.047 A 
ATOM     23  C   UNL     1      -8.489   3.332  -1.249  1.00  0.00     0.047 A 
ATOM     24  C   UNL     1      -9.211   5.783  -0.132  1.00  0.00     0.004 A 
ATOM     25  C   UNL     1      -9.517   3.394  -0.308  1.00  0.00     0.004 A 
ATOM     26  C   UNL     1      -9.879   4.620   0.250  1.00  0.00     0.000 A 
ENDBRANCH  20  21
ENDBRANCH  17  20
ENDBRANCH   1  14
TORSDOF 7
ENDMDL
MODEL 3
REMARK VINA RESULT:    -6.249      2.512      4.956
REMARK INTER + INTRA:         -11.974
REMARK INTER:                  -9.863
REMARK INTRA:                  -2.112
REMARK UNBOUND:                -3.168
REMARK SMILES CC1(C)[C@H](C=C(Cl)Cl)[C@H]1C(=O)OCc1cccc(Oc2ccccc2)c1
REMARK SMILES IDX 13 1 12 2 10 3 11 4 9 5 4 6 2 7 1 8 3 9 5 10 7 11 6 12 8 13
REMARK SMILES IDX 14 14 26 15 15 16 18 17 16 18 17 19 19 20 20 21 21 22 25 23
REMARK SMILES IDX 22 24 24 25 23 26
REMARK H PARENT
REMARK Flexibility Score: inf
ROOT
ATOM      1  C   UNL     1       1.170   3.700  -2.303  1.00  0.00     0.268 C 
ENDROOT
BRANCH   1   2
ATOM      2  O   UNL     1       0.206   4.711  -2.563  1.00  0.00    -0.461 OA
BRANCH   2   3
ATOM      3  C   UNL     1       0.057   5.656  -1.590  1.00  0.00     0.310 C 
ATOM      4  O   UNL     1       0.937   6.103  -0.867  1.00  0.00    -0.252 OA
BRANCH   3   5
ATOM      5  C   UNL     1      -1.349   6.120  -1.479  1.00  0.00     0.113 C 
ATOM      6  C   UNL     1      -2.255   5.922  -2.653  1.00  0.00     0.035 C 
ATOM      7  C   UNL     1      -1.811   7.303  -2.269  1.00  0.00    -0.014 C 
ATOM      8  C   UNL     1      -2.837   8.218  -1.690  1.00  0.00     0.012 C 
ATOM      9  C   UNL     1      -0.790   8.010  -3.095  1.00  0.00     0.012 C 
BRANCH   6  10
ATOM     10  C   UNL     1      -3.623   5.492  -2.403  1.00  0.00     0.011 C 
ATOM     11  Cl  UNL     1      -2.921   3.115  -1.345  1.00  0.00    -0.071 Cl
ATOM     12  C   UNL     1      -4.031   4.335  -1.859  1.00  0.00     0.103 C 
ATOM     13  Cl  UNL     1      -5.717   4.013  -1.649  1.00  0.00    -0.071 Cl
ENDBRANCH   6  10
ENDBRANCH   3   5
ENDBRANCH   2   3
ENDBRANCH   1   2
BRANCH   1  14
ATOM     14  C   UNL     1       0.486   2.380  -2.184  1.00  0.00    -0.007 A 
ATOM     15  C   UNL     1      -0.152   1.824  -3.293  1.00  0.00     0.054 A 
ATOM     16  C   UNL     1       0.485   1.702  -0.966  1.00  0.00     0.007 A 
ATOM     17  C   UNL     1      -0.791   0.589  -3.182  1.00  0.00     0.127 A 
ATOM     18  C   UNL     1      -0.155   0.468  -0.855  1.00  0.00     0.004 A 
ATOM     19  C   UNL     1      -0.793  -0.089  -1.964  1.00  0.00     0.047 A 
BRANCH  17  20
ATOM     20  O   UNL     1      -1.414   0.046  -4.264  1.00  0.00    -0.457 OA
BRANCH  20  21
ATOM     21  C   UNL     1      -2.791   0.168  -4.343  1.00  0.00     0.127 A 
ATOM     22  C   UNL     1      -3.350   1.429  -4.462  1.00  0.00     0.047 A 
ATOM     23  C   UNL     1      -3.573  -0.972  -4.303  1.00  0.00     0.047 A 
ATOM     24  C   UNL     1      -4.736   1.552  -4.542  1.00  0.00     0.004 A 
ATOM     25  C   UNL     1      -4.960  -0.848  -4.383  1.00  0.00     0.004 A 
ATOM     26  C   UNL     1      -5.541   0.414  -4.503  1.00  0.00     0.000 A 
ENDBRANCH  20  21
ENDBRANCH  17  20
ENDBRANCH   1  14
TORSDOF 7
ENDMDL
MODEL 4
REMARK VINA RESULT:    -6.172      2.345      4.651
REMARK INTER + INTRA:         -11.866
REMARK INTER:                  -9.764
REMARK INTRA:                  -2.102
REMARK UNBOUND:                -3.168
REMARK SMILES CC1(C)[C@H](C=C(Cl)Cl)[C@H]1C(=O)OCc1cccc(Oc2ccccc2)c1
REMARK SMILES IDX 13 1 12 2 10 3 11 4 9 5 4 6 2 7 1 8 3 9 5 10 7 11 6 12 8 13
REMARK SMILES IDX 14 14 26 15 15 16 18 17 16 18 17 19 19 20 20 21 21 22 25 23
REMARK SMILES IDX 22 24 24 25 23 26
REMARK H PARENT
REMARK Flexibility Score: inf
ROOT
ATOM      1  C   UNL     1      -4.764   1.749  -3.695  1.00  0.00     0.268 C 
ENDROOT
BRANCH   1   2
ATOM      2  O   UNL     1      -3.348   1.818  -3.802  1.00  0.00    -0.461 OA
BRANCH   2   3
ATOM      3  C   UNL     1      -2.646   1.219  -2.797  1.00  0.00     0.310 C 
ATOM      4  O   UNL     1      -2.831   0.097  -2.347  1.00  0.00    -0.252 OA
BRANCH   3   5
ATOM      5  C   UNL     1      -1.575   2.102  -2.268  1.00  0.00     0.113 C 
ATOM      6  C   UNL     1      -0.934   1.737  -0.966  1.00  0.00     0.035 C 
ATOM      7  C   UNL     1      -1.827   2.940  -1.055  1.00  0.00    -0.014 C 
ATOM      8  C   UNL     1      -1.184   4.282  -0.944  1.00  0.00     0.012 C 
ATOM      9  C   UNL     1      -3.197   2.892  -0.468  1.00  0.00     0.012 C 
BRANCH   6  10
ATOM     10  C   UNL     1       0.507   1.897  -0.840  1.00  0.00     0.011 C 
ATOM     11  Cl  UNL     1       0.822  -0.207   0.814  1.00  0.00    -0.071 Cl
ATOM     12  C   UNL     1       1.354   1.143  -0.121  1.00  0.00     0.103 C 
ATOM     13  Cl  UNL     1       3.045   1.505  -0.102  1.00  0.00    -0.071 Cl
ENDBRANCH   6  10
ENDBRANCH   3   5
ENDBRANCH   2   3
ENDBRANCH   1   2
BRANCH   1  14
ATOM     14  C   UNL     1      -5.295   3.080  -3.282  1.00  0.00    -0.007 A 
ATOM     15  C   UNL     1      -4.722   4.247  -3.788  1.00  0.00     0.054 A 
ATOM     16  C   UNL     1      -6.366   3.157  -2.391  1.00  0.00     0.007 A 
ATOM     17  C   UNL     1      -5.220   5.491  -3.401  1.00  0.00     0.127 A 
ATOM     18  C   UNL     1      -6.862   4.402  -2.004  1.00  0.00     0.004 A 
ATOM     19  C   UNL     1      -6.289   5.569  -2.510  1.00  0.00     0.047 A 
BRANCH  17  20
ATOM     20  O   UNL     1      -4.661   6.631  -3.894  1.00  0.00    -0.457 OA
BRANCH  20  21
ATOM     21  C   UNL     1      -3.422   7.005  -3.404  1.00  0.00     0.127 A 
ATOM     22  C   UNL     1      -3.335   7.540  -2.130  1.00  0.00     0.047 A 
ATOM     23  C   UNL     1      -2.303   6.836  -4.199  1.00  0.00     0.047 A 
ATOM     24  C   UNL     1      -2.087   7.917  -1.637  1.00  0.00     0.004 A 
ATOM     25  C   UNL     1      -1.054   7.213  -3.703  1.00  0.00     0.004 A 
ATOM     26  C   UNL     1      -0.947   7.753  -2.422  1.00  0.00     0.000 A 
ENDBRANCH  20  21
ENDBRANCH  17  20
ENDBRANCH   1  14
TORSDOF 7
ENDMDL
MODEL 5
REMARK VINA RESULT:    -6.171      2.693      5.154
REMARK INTER + INTRA:         -11.865
REMARK INTER:                  -8.770
REMARK INTRA:                  -3.095
REMARK UNBOUND:                -3.168
REMARK SMILES CC1(C)[C@H](C=C(Cl)Cl)[C@H]1C(=O)OCc1cccc(Oc2ccccc2)c1
REMARK SMILES IDX 13 1 12 2 10 3 11 4 9 5 4 6 2 7 1 8 3 9 5 10 7 11 6 12 8 13
REMARK SMILES IDX 14 14 26 15 15 16 18 17 16 18 17 19 19 20 20 21 21 22 25 23
REMARK SMILES IDX 22 24 24 25 23 26
REMARK H PARENT
REMARK Flexibility Score: inf
ROOT
ATOM      1  C   UNL     1      -0.344   0.887  -1.049  1.00  0.00     0.268 C 
ENDROOT
BRANCH   1   2
ATOM      2  O   UNL     1      -0.262   2.295  -0.867  1.00  0.00    -0.461 OA
BRANCH   2   3
ATOM      3  C   UNL     1       0.845   2.898  -1.389  1.00  0.00     0.310 C 
ATOM      4  O   UNL     1       1.994   2.480  -1.341  1.00  0.00    -0.252 OA
BRANCH   3   5
ATOM      5  C   UNL     1       0.512   4.180  -2.061  1.00  0.00     0.113 C 
ATOM      6  C   UNL     1      -0.906   4.416  -2.474  1.00  0.00     0.035 C 
ATOM      7  C   UNL     1       0.154   4.193  -3.513  1.00  0.00    -0.014 C 
ATOM      8  C   UNL     1       0.545   5.360  -4.356  1.00  0.00     0.012 C 
ATOM      9  C   UNL     1       0.216   2.893  -4.241  1.00  0.00     0.012 C 
BRANCH   6  10
ATOM     10  C   UNL     1      -1.471   5.742  -2.270  1.00  0.00     0.011 C 
ATOM     11  Cl  UNL     1      -2.856   5.060  -0.062  1.00  0.00    -0.071 Cl
ATOM     12  C   UNL     1      -2.303   6.136  -1.294  1.00  0.00     0.103 C 
ATOM     13  Cl  UNL     1      -2.866   7.770  -1.231  1.00  0.00    -0.071 Cl
ENDBRANCH   6  10
ENDBRANCH   3   5
ENDBRANCH   2   3
ENDBRANCH   1   2
BRANCH   1  14
ATOM     14  C   UNL     1      -1.424   0.576  -2.030  1.00  0.00    -0.007 A 
ATOM     15  C   UNL     1      -2.635   1.266  -1.976  1.00  0.00     0.054 A 
ATOM     16  C   UNL     1      -1.222  -0.404  -3.002  1.00  0.00     0.007 A 
ATOM     17  C   UNL     1      -3.644   0.975  -2.894  1.00  0.00     0.127 A 
ATOM     18  C   UNL     1      -2.231  -0.695  -3.919  1.00  0.00     0.004 A 
ATOM     19  C   UNL     1      -3.442  -0.005  -3.865  1.00  0.00     0.047 A 
BRANCH  17  20
ATOM     20  O   UNL     1      -4.826   1.649  -2.842  1.00  0.00    -0.457 OA
BRANCH  20  21
ATOM     21  C   UNL     1      -4.823   2.985  -3.203  1.00  0.00     0.127 A 
ATOM     22  C   UNL     1      -4.079   3.385  -4.299  1.00  0.00     0.047 A 
ATOM     23  C   UNL     1      -5.562   3.886  -2.460  1.00  0.00     0.047 A 
ATOM     24  C   UNL     1      -4.075   4.731  -4.663  1.00  0.00     0.004 A 
ATOM     25  C   UNL     1      -5.559   5.233  -2.825  1.00  0.00     0.004 A 
ATOM     26  C   UNL     1      -4.815   5.655  -3.927  1.00  0.00     0.000 A 
ENDBRANCH  20  21
ENDBRANCH  17  20
ENDBRANCH   1  14
TORSDOF 7
ENDMDL
