MODEL 1
REMARK VINA RESULT:    -6.483      0.000      0.000
REMARK INTER + INTRA:         -12.361
REMARK INTER:                  -9.136
REMARK INTRA:                  -3.224
REMARK UNBOUND:                -3.224
REMARK SMILES CC1(C)[C@H](C=C(Cl)Cl)[C@H]1C(=O)OCc1cccc(Oc2ccccc2)c1
REMARK SMILES IDX 13 1 12 2 10 3 11 4 9 5 4 6 2 7 1 8 3 9 5 10 7 11 6 12 8 13
REMARK SMILES IDX 14 14 26 15 15 16 18 17 16 18 17 19 19 20 20 21 21 22 25 23
REMARK SMILES IDX 22 24 24 25 23 26
REMARK H PARENT
REMARK Flexibility Score: inf
ROOT
ATOM      1  C   UNL     1      -0.430   6.875  -3.211  1.00  0.00     0.268 C 
ENDROOT
BRANCH   1   2
ATOM      2  O   UNL     1      -0.266   5.481  -2.979  1.00  0.00    -0.461 OA
BRANCH   2   3
ATOM      3  C   UNL     1       0.042   5.124  -1.699  1.00  0.00     0.310 C 
ATOM      4  O   UNL     1       0.735   5.756  -0.913  1.00  0.00    -0.252 OA
BRANCH   3   5
ATOM      5  C   UNL     1      -0.575   3.827  -1.323  1.00  0.00     0.113 C 
ATOM      6  C   UNL     1      -1.801   3.386  -2.057  1.00  0.00     0.035 C 
ATOM      7  C   UNL     1      -1.894   3.802  -0.618  1.00  0.00    -0.014 C 
ATOM      8  C   UNL     1      -2.168   2.735   0.388  1.00  0.00     0.012 C 
ATOM      9  C   UNL     1      -2.501   5.117  -0.263  1.00  0.00     0.012 C 
BRANCH   6  10
ATOM     10  C   UNL     1      -1.916   1.983  -2.428  1.00  0.00     0.011 C 
ATOM     11  Cl  UNL     1      -0.354   2.200  -4.613  1.00  0.00    -0.071 Cl
ATOM     12  C   UNL     1      -1.355   1.366  -3.479  1.00  0.00     0.103 C 
ATOM     13  Cl  UNL     1      -1.619  -0.322  -3.746  1.00  0.00    -0.071 Cl
ENDBRANCH   6  10
ENDBRANCH   3   5
ENDBRANCH   2   3
ENDBRANCH   1   2
BRANCH   1  14
ATOM     14  C   UNL     1      -1.869   7.236  -3.064  1.00  0.00    -0.007 A 
ATOM     15  C   UNL     1      -2.851   6.450  -3.669  1.00  0.00     0.054 A 
ATOM     16  C   UNL     1      -2.235   8.359  -2.322  1.00  0.00     0.007 A 
ATOM     17  C   UNL     1      -4.197   6.788  -3.531  1.00  0.00     0.127 A 
ATOM     18  C   UNL     1      -3.580   8.697  -2.185  1.00  0.00     0.004 A 
ATOM     19  C   UNL     1      -4.561   7.910  -2.789  1.00  0.00     0.047 A 
BRANCH  17  20
ATOM     20  O   UNL     1      -5.155   6.021  -4.121  1.00  0.00    -0.457 OA
BRANCH  20  21
ATOM     21  C   UNL     1      -5.250   4.696  -3.730  1.00  0.00     0.127 A 
ATOM     22  C   UNL     1      -5.015   3.701  -4.663  1.00  0.00     0.047 A 
ATOM     23  C   UNL     1      -5.578   4.401  -2.420  1.00  0.00     0.047 A 
ATOM     24  C   UNL     1      -5.111   2.366  -4.270  1.00  0.00     0.004 A 
ATOM     25  C   UNL     1      -5.674   3.065  -2.028  1.00  0.00     0.004 A 
ATOM     26  C   UNL     1      -5.440   2.048  -2.953  1.00  0.00     0.000 A 
ENDBRANCH  20  21
ENDBRANCH  17  20
ENDBRANCH   1  14
TORSDOF 7
ENDMDL
MODEL 2
REMARK VINA RESULT:    -6.132      2.456      4.645
REMARK INTER + INTRA:         -11.866
REMARK INTER:                  -9.780
REMARK INTRA:                  -2.085
REMARK UNBOUND:                -3.224
REMARK SMILES CC1(C)[C@H](C=C(Cl)Cl)[C@H]1C(=O)OCc1cccc(Oc2ccccc2)c1
REMARK SMILES IDX 13 1 12 2 10 3 11 4 9 5 4 6 2 7 1 8 3 9 5 10 7 11 6 12 8 13
REMARK SMILES IDX 14 14 26 15 15 16 18 17 16 18 17 19 19 20 20 21 21 22 25 23
REMARK SMILES IDX 22 24 24 25 23 26
REMARK H PARENT
REMARK Flexibility Score: inf
ROOT
ATOM      1  C   UNL     1      -4.762   1.682  -3.743  1.00  0.00     0.268 C 
ENDROOT
BRANCH   1   2
ATOM      2  O   UNL     1      -3.347   1.762  -3.852  1.00  0.00    -0.461 OA
BRANCH   2   3
ATOM      3  C   UNL     1      -2.639   1.156  -2.855  1.00  0.00     0.310 C 
ATOM      4  O   UNL     1      -2.798   0.018  -2.435  1.00  0.00    -0.252 OA
BRANCH   3   5
ATOM      5  C   UNL     1      -1.597   2.053  -2.293  1.00  0.00     0.113 C 
ATOM      6  C   UNL     1      -0.930   1.652  -1.015  1.00  0.00     0.035 C 
ATOM      7  C   UNL     1      -1.868   2.823  -1.040  1.00  0.00    -0.014 C 
ATOM      8  C   UNL     1      -1.274   4.181  -0.870  1.00  0.00     0.012 C 
ATOM      9  C   UNL     1      -3.230   2.696  -0.445  1.00  0.00     0.012 C 
BRANCH   6  10
ATOM     10  C   UNL     1       0.505   1.859  -0.893  1.00  0.00     0.011 C 
ATOM     11  Cl  UNL     1       0.869  -0.130   0.888  1.00  0.00    -0.071 Cl
ATOM     12  C   UNL     1       1.369   1.175  -0.126  1.00  0.00     0.103 C 
ATOM     13  Cl  UNL     1       3.049   1.585  -0.121  1.00  0.00    -0.071 Cl
ENDBRANCH   6  10
ENDBRANCH   3   5
ENDBRANCH   2   3
ENDBRANCH   1   2
BRANCH   1  14
ATOM     14  C   UNL     1      -5.302   3.002  -3.307  1.00  0.00    -0.007 A 
ATOM     15  C   UNL     1      -4.738   4.181  -3.795  1.00  0.00     0.054 A 
ATOM     16  C   UNL     1      -6.371   3.057  -2.413  1.00  0.00     0.007 A 
ATOM     17  C   UNL     1      -5.244   5.416  -3.387  1.00  0.00     0.127 A 
ATOM     18  C   UNL     1      -6.876   4.292  -2.005  1.00  0.00     0.004 A 
ATOM     19  C   UNL     1      -6.312   5.471  -2.492  1.00  0.00     0.047 A 
BRANCH  17  20
ATOM     20  O   UNL     1      -4.694   6.567  -3.862  1.00  0.00    -0.457 OA
BRANCH  20  21
ATOM     21  C   UNL     1      -3.466   6.952  -3.353  1.00  0.00     0.127 A 
ATOM     22  C   UNL     1      -2.328   6.751  -4.115  1.00  0.00     0.047 A 
ATOM     23  C   UNL     1      -3.407   7.528  -2.098  1.00  0.00     0.047 A 
ATOM     24  C   UNL     1      -1.091   7.140  -3.602  1.00  0.00     0.004 A 
ATOM     25  C   UNL     1      -2.168   7.917  -1.585  1.00  0.00     0.004 A 
ATOM     26  C   UNL     1      -1.011   7.723  -2.338  1.00  0.00     0.000 A 
ENDBRANCH  20  21
ENDBRANCH  17  20
ENDBRANCH   1  14
TORSDOF 7
ENDMDL
MODEL 3
REMARK VINA RESULT:    -6.110      2.876      6.128
REMARK INTER + INTRA:         -11.835
REMARK INTER:                  -8.836
REMARK INTRA:                  -2.998
REMARK UNBOUND:                -3.224
REMARK SMILES CC1(C)[C@H](C=C(Cl)Cl)[C@H]1C(=O)OCc1cccc(Oc2ccccc2)c1
REMARK SMILES IDX 13 1 12 2 10 3 11 4 9 5 4 6 2 7 1 8 3 9 5 10 7 11 6 12 8 13
REMARK SMILES IDX 14 14 26 15 15 16 18 17 16 18 17 19 19 20 20 21 21 22 25 23
REMARK SMILES IDX 22 24 24 25 23 26
REMARK H PARENT
REMARK Flexibility Score: inf
ROOT
ATOM      1  C   UNL     1      -5.403   2.684  -4.663  1.00  0.00     0.268 C 
ENDROOT
BRANCH   1   2
ATOM      2  O   UNL     1      -4.771   3.705  -3.902  1.00  0.00    -0.461 OA
BRANCH   2   3
ATOM      3  C   UNL     1      -5.234   3.870  -2.629  1.00  0.00     0.310 C 
ATOM      4  O   UNL     1      -6.354   3.600  -2.220  1.00  0.00    -0.252 OA
BRANCH   3   5
ATOM      5  C   UNL     1      -4.196   4.439  -1.732  1.00  0.00     0.113 C 
ATOM      6  C   UNL     1      -2.758   4.237  -2.093  1.00  0.00     0.035 C 
ATOM      7  C   UNL     1      -3.342   3.533  -0.904  1.00  0.00    -0.014 C 
ATOM      8  C   UNL     1      -2.892   3.978   0.447  1.00  0.00     0.012 C 
ATOM      9  C   UNL     1      -3.633   2.071  -0.976  1.00  0.00     0.012 C 
BRANCH   6  10
ATOM     10  C   UNL     1      -1.838   5.351  -1.912  1.00  0.00     0.011 C 
ATOM     11  Cl  UNL     1      -2.828   6.795  -3.960  1.00  0.00    -0.071 Cl
ATOM     12  C   UNL     1      -1.769   6.481  -2.633  1.00  0.00     0.103 C 
ATOM     13  Cl  UNL     1      -0.592   7.689  -2.253  1.00  0.00    -0.071 Cl
ENDBRANCH   6  10
ENDBRANCH   3   5
ENDBRANCH   2   3
ENDBRANCH   1   2
BRANCH   1  14
ATOM     14  C   UNL     1      -4.631   1.415  -4.530  1.00  0.00    -0.007 A 
ATOM     15  C   UNL     1      -3.241   1.453  -4.423  1.00  0.00     0.054 A 
ATOM     16  C   UNL     1      -5.299   0.191  -4.511  1.00  0.00     0.007 A 
ATOM     17  C   UNL     1      -2.519   0.266  -4.298  1.00  0.00     0.127 A 
ATOM     18  C   UNL     1      -4.577  -0.996  -4.387  1.00  0.00     0.004 A 
ATOM     19  C   UNL     1      -3.187  -0.957  -4.280  1.00  0.00     0.047 A 
BRANCH  17  20
ATOM     20  O   UNL     1      -1.162   0.303  -4.194  1.00  0.00    -0.457 OA
BRANCH  20  21
ATOM     21  C   UNL     1      -0.619   0.772  -3.010  1.00  0.00     0.127 A 
ATOM     22  C   UNL     1       0.003   2.009  -2.998  1.00  0.00     0.047 A 
ATOM     23  C   UNL     1      -0.712  -0.005  -1.871  1.00  0.00     0.047 A 
ATOM     24  C   UNL     1       0.550   2.481  -1.806  1.00  0.00     0.004 A 
ATOM     25  C   UNL     1      -0.165   0.469  -0.678  1.00  0.00     0.004 A 
ATOM     26  C   UNL     1       0.466   1.713  -0.646  1.00  0.00     0.000 A 
ENDBRANCH  20  21
ENDBRANCH  17  20
ENDBRANCH   1  14
TORSDOF 7
ENDMDL
MODEL 4
REMARK VINA RESULT:    -5.981      2.834      5.282
REMARK INTER + INTRA:         -11.653
REMARK INTER:                  -9.247
REMARK INTRA:                  -2.406
REMARK UNBOUND:                -3.224
REMARK SMILES CC1(C)[C@H](C=C(Cl)Cl)[C@H]1C(=O)OCc1cccc(Oc2ccccc2)c1
REMARK SMILES IDX 13 1 12 2 10 3 11 4 9 5 4 6 2 7 1 8 3 9 5 10 7 11 6 12 8 13
REMARK SMILES IDX 14 14 26 15 15 16 18 17 16 18 17 19 19 20 20 21 21 22 25 23
REMARK SMILES IDX 22 24 24 25 23 26
REMARK H PARENT
REMARK Flexibility Score: inf
ROOT
ATOM      1  C   UNL     1      -3.891   0.533  -2.319  1.00  0.00     0.268 C 
ENDROOT
BRANCH   1   2
ATOM      2  O   UNL     1      -2.494   0.448  -2.067  1.00  0.00    -0.461 OA
BRANCH   2   3
ATOM      3  C   UNL     1      -1.698   0.336  -3.169  1.00  0.00     0.310 C 
ATOM      4  O   UNL     1      -1.989  -0.205  -4.227  1.00  0.00    -0.252 OA
BRANCH   3   5
ATOM      5  C   UNL     1      -0.371   0.968  -2.959  1.00  0.00     0.113 C 
ATOM      6  C   UNL     1      -0.230   1.974  -1.861  1.00  0.00     0.035 C 
ATOM      7  C   UNL     1      -0.166   2.410  -3.296  1.00  0.00    -0.014 C 
ATOM      8  C   UNL     1       1.157   2.863  -3.817  1.00  0.00     0.012 C 
ATOM      9  C   UNL     1      -1.319   3.137  -3.902  1.00  0.00     0.012 C 
BRANCH   6  10
ATOM     10  C   UNL     1       0.975   1.941  -1.046  1.00  0.00     0.011 C 
ATOM     11  Cl  UNL     1       0.282  -0.293   0.291  1.00  0.00    -0.071 Cl
ATOM     12  C   UNL     1       1.305   1.040  -0.108  1.00  0.00     0.103 C 
ATOM     13  Cl  UNL     1       2.795   1.183   0.757  1.00  0.00    -0.071 Cl
ENDBRANCH   6  10
ENDBRANCH   3   5
ENDBRANCH   2   3
ENDBRANCH   1   2
BRANCH   1  14
ATOM     14  C   UNL     1      -4.346   1.939  -2.119  1.00  0.00    -0.007 A 
ATOM     15  C   UNL     1      -3.612   2.800  -1.303  1.00  0.00     0.054 A 
ATOM     16  C   UNL     1      -5.505   2.394  -2.749  1.00  0.00     0.007 A 
ATOM     17  C   UNL     1      -4.038   4.115  -1.116  1.00  0.00     0.127 A 
ATOM     18  C   UNL     1      -5.931   3.708  -2.562  1.00  0.00     0.004 A 
ATOM     19  C   UNL     1      -5.196   4.569  -1.746  1.00  0.00     0.047 A 
BRANCH  17  20
ATOM     20  O   UNL     1      -3.322   4.956  -0.320  1.00  0.00    -0.457 OA
BRANCH  20  21
ATOM     21  C   UNL     1      -2.323   5.710  -0.912  1.00  0.00     0.127 A 
ATOM     22  C   UNL     1      -2.650   6.925  -1.489  1.00  0.00     0.047 A 
ATOM     23  C   UNL     1      -1.027   5.231  -0.912  1.00  0.00     0.047 A 
ATOM     24  C   UNL     1      -1.644   7.685  -2.086  1.00  0.00     0.004 A 
ATOM     25  C   UNL     1      -0.021   5.992  -1.509  1.00  0.00     0.004 A 
ATOM     26  C   UNL     1      -0.330   7.219  -2.095  1.00  0.00     0.000 A 
ENDBRANCH  20  21
ENDBRANCH  17  20
ENDBRANCH   1  14
TORSDOF 7
ENDMDL
MODEL 5
REMARK VINA RESULT:    -5.960      2.190      2.525
REMARK INTER + INTRA:         -11.623
REMARK INTER:                  -9.473
REMARK INTRA:                  -2.151
REMARK UNBOUND:                -3.224
REMARK SMILES CC1(C)[C@H](C=C(Cl)Cl)[C@H]1C(=O)OCc1cccc(Oc2ccccc2)c1
REMARK SMILES IDX 13 1 12 2 10 3 11 4 9 5 4 6 2 7 1 8 3 9 5 10 7 11 6 12 8 13
REMARK SMILES IDX 14 14 26 15 15 16 18 17 16 18 17 19 19 20 20 21 21 22 25 23
REMARK SMILES IDX 22 24 24 25 23 26
REMARK H PARENT
REMARK Flexibility Score: inf
ROOT
ATOM      1  C   UNL     1      -0.533   6.258  -1.875  1.00  0.00     0.268 C 
ENDROOT
BRANCH   1   2
ATOM      2  O   UNL     1       0.014   5.581  -2.999  1.00  0.00    -0.461 OA
BRANCH   2   3
ATOM      3  C   UNL     1       0.795   4.497  -2.717  1.00  0.00     0.310 C 
ATOM      4  O   UNL     1       1.860   4.210  -3.244  1.00  0.00    -0.252 OA
BRANCH   3   5
ATOM      5  C   UNL     1       0.201   3.650  -1.651  1.00  0.00     0.113 C 
ATOM      6  C   UNL     1       0.580   2.204  -1.602  1.00  0.00     0.035 C 
ATOM      7  C   UNL     1      -0.810   2.605  -2.001  1.00  0.00    -0.014 C 
ATOM      8  C   UNL     1      -1.914   2.302  -1.044  1.00  0.00     0.012 C 
ATOM      9  C   UNL     1      -1.226   2.513  -3.430  1.00  0.00     0.012 C 
BRANCH   6  10
ATOM     10  C   UNL     1       0.828   1.601  -0.300  1.00  0.00     0.011 C 
ATOM     11  Cl  UNL     1       3.512   1.678  -0.523  1.00  0.00    -0.071 Cl
ATOM     12  C   UNL     1       2.015   1.329   0.264  1.00  0.00     0.103 C 
ATOM     13  Cl  UNL     1       2.092   0.601   1.831  1.00  0.00    -0.071 Cl
ENDBRANCH   6  10
ENDBRANCH   3   5
ENDBRANCH   2   3
ENDBRANCH   1   2
BRANCH   1  14
ATOM     14  C   UNL     1      -1.900   6.751  -2.209  1.00  0.00    -0.007 A 
ATOM     15  C   UNL     1      -2.737   5.986  -3.022  1.00  0.00     0.054 A 
ATOM     16  C   UNL     1      -2.342   7.976  -1.709  1.00  0.00     0.007 A 
ATOM     17  C   UNL     1      -4.016   6.447  -3.334  1.00  0.00     0.127 A 
ATOM     18  C   UNL     1      -3.620   8.437  -2.022  1.00  0.00     0.004 A 
ATOM     19  C   UNL     1      -4.457   7.672  -2.835  1.00  0.00     0.047 A 
BRANCH  17  20
ATOM     20  O   UNL     1      -4.833   5.701  -4.127  1.00  0.00    -0.457 OA
BRANCH  20  21
ATOM     21  C   UNL     1      -5.016   4.371  -3.793  1.00  0.00     0.127 A 
ATOM     22  C   UNL     1      -4.565   3.390  -4.660  1.00  0.00     0.047 A 
ATOM     23  C   UNL     1      -5.645   4.054  -2.603  1.00  0.00     0.047 A 
ATOM     24  C   UNL     1      -4.749   2.050  -4.324  1.00  0.00     0.004 A 
ATOM     25  C   UNL     1      -5.828   2.712  -2.267  1.00  0.00     0.004 A 
ATOM     26  C   UNL     1      -5.380   1.710  -3.128  1.00  0.00     0.000 A 
ENDBRANCH  20  21
ENDBRANCH  17  20
ENDBRANCH   1  14
TORSDOF 7
ENDMDL
