MODEL 1
REMARK VINA RESULT:    -6.852      0.000      0.000
REMARK INTER + INTRA:         -11.527
REMARK INTER:                 -10.057
REMARK INTRA:                  -1.471
REMARK UNBOUND:                -1.471
REMARK SMILES CC1(C)C(C=C(Br)Br)C1C(=O)OC(C#N)c1cccc(Oc2ccccc2)c1
REMARK SMILES IDX 13 1 12 2 10 3 11 4 9 5 4 6 2 7 1 8 3 9 5 10 7 11 6 12 8 13
REMARK SMILES IDX 16 14 28 15 17 16 20 17 18 18 19 19 21 20 22 21 23 22 27 23
REMARK SMILES IDX 24 24 26 25 25 26 14 27 15 28
REMARK H PARENT
REMARK Flexibility Score: inf
ROOT
ATOM      1  C   UNL     1      -4.302   1.507  -2.893  1.00  0.00     0.309 C
ENDROOT
BRANCH   1   2
ATOM      2  O   UNL     1      -2.973   1.615  -3.422  1.00  0.00    -0.442 OA
BRANCH   2   3
ATOM      3  C   UNL     1      -1.979   1.232  -2.577  1.00  0.00     0.311 C
ATOM      4  O   UNL     1      -1.765   0.105  -2.153  1.00  0.00    -0.252 OA
BRANCH   3   5
ATOM      5  C   UNL     1      -1.122   2.383  -2.192  1.00  0.00     0.113 C
ATOM      6  C   UNL     1      -0.232   2.238  -1.000  1.00  0.00     0.035 C
ATOM      7  C   UNL     1      -1.419   3.154  -0.946  1.00  0.00    -0.014 C
ATOM      8  C   UNL     1      -2.565   2.740  -0.083  1.00  0.00     0.012 C
ATOM      9  C   UNL     1      -1.217   4.631  -0.999  1.00  0.00     0.012 C
BRANCH   6  10
ATOM     10  C   UNL     1      -0.242   0.973  -0.279  1.00  0.00     0.001 C
ATOM     11  Br  UNL     1       2.434   1.221   0.648  1.00  0.00    -0.043 Br
ATOM     12  C   UNL     1       0.754   0.422   0.434  1.00  0.00     0.057 C
ATOM     13  Br  UNL     1       0.531  -1.231   1.291  1.00  0.00    -0.043 Br
ENDBRANCH   6  10
ENDBRANCH   3   5
ENDBRANCH   2   3
ENDBRANCH   1   2
BRANCH   1  14
ATOM     14  C   UNL     1      -4.973   2.837  -2.930  1.00  0.00     0.011 A
ATOM     15  C   UNL     1      -4.361   3.911  -3.579  1.00  0.00     0.055 A
ATOM     16  C   UNL     1      -6.215   3.009  -2.317  1.00  0.00     0.009 A
ATOM     17  C   UNL     1      -4.990   5.155  -3.613  1.00  0.00     0.127 A
ATOM     18  C   UNL     1      -6.843   4.255  -2.352  1.00  0.00     0.004 A
ATOM     19  C   UNL     1      -6.230   5.327  -3.000  1.00  0.00     0.047 A
BRANCH  17  20
ATOM     20  O   UNL     1      -4.393   6.203  -4.245  1.00  0.00    -0.457 OA
BRANCH  20  21
ATOM     21  C   UNL     1      -3.320   6.809  -3.612  1.00  0.00     0.127 A
ATOM     22  C   UNL     1      -2.071   6.755  -4.202  1.00  0.00     0.047 A
ATOM     23  C   UNL     1      -3.527   7.454  -2.405  1.00  0.00     0.047 A
ATOM     24  C   UNL     1      -0.991   7.366  -3.564  1.00  0.00     0.004 A
ATOM     25  C   UNL     1      -2.448   8.064  -1.767  1.00  0.00     0.004 A
ATOM     26  C   UNL     1      -1.179   8.021  -2.347  1.00  0.00     0.000 A
ENDBRANCH  20  21
ENDBRANCH  17  20
ENDBRANCH   1  14
BRANCH   1  27
ATOM     27  C   UNL     1      -5.045   0.475  -3.644  1.00  0.00     0.113 C
ATOM     28  N   UNL     1      -5.619  -0.341  -4.237  1.00  0.00    -0.194 NA
ENDBRANCH   1  27
TORSDOF 8
ENDMDL
MODEL 2
REMARK VINA RESULT:    -6.720      3.322      4.981
REMARK INTER + INTRA:         -11.334
REMARK INTER:                  -9.928
REMARK INTRA:                  -1.406
REMARK UNBOUND:                -1.471
REMARK SMILES CC1(C)C(C=C(Br)Br)C1C(=O)OC(C#N)c1cccc(Oc2ccccc2)c1
REMARK SMILES IDX 13 1 12 2 10 3 11 4 9 5 4 6 2 7 1 8 3 9 5 10 7 11 6 12 8 13
REMARK SMILES IDX 16 14 28 15 17 16 20 17 18 18 19 19 21 20 22 21 23 22 27 23
REMARK SMILES IDX 24 24 26 25 25 26 14 27 15 28
REMARK H PARENT
REMARK Flexibility Score: inf
ROOT
ATOM      1  C   UNL     1       1.026   3.061  -3.749  1.00  0.00     0.309 C
ENDROOT
BRANCH   1   2
ATOM      2  O   UNL     1       0.740   2.064  -2.759  1.00  0.00    -0.442 OA
BRANCH   2   3
ATOM      3  C   UNL     1      -0.533   1.584  -2.767  1.00  0.00     0.311 C
ATOM      4  O   UNL     1      -1.406   1.825  -3.589  1.00  0.00    -0.252 OA
BRANCH   3   5
ATOM      5  C   UNL     1      -0.780   0.684  -1.612  1.00  0.00     0.113 C
ATOM      6  C   UNL     1      -1.262   1.288  -0.332  1.00  0.00     0.035 C
ATOM      7  C   UNL     1       0.126   0.726  -0.423  1.00  0.00    -0.014 C
ATOM      8  C   UNL     1       1.260   1.696  -0.398  1.00  0.00     0.012 C
ATOM      9  C   UNL     1       0.442  -0.577   0.234  1.00  0.00     0.012 C
BRANCH   6  10
ATOM     10  C   UNL     1      -1.475   2.726  -0.283  1.00  0.00     0.001 C
ATOM     11  Br  UNL     1      -4.120   2.599  -1.314  1.00  0.00    -0.043 Br
ATOM     12  C   UNL     1      -2.573   3.411  -0.645  1.00  0.00     0.057 C
ATOM     13  Br  UNL     1      -2.639   5.280  -0.500  1.00  0.00    -0.043 Br
ENDBRANCH   6  10
ENDBRANCH   3   5
ENDBRANCH   2   3
ENDBRANCH   1   2
BRANCH   1  14
ATOM     14  C   UNL     1       0.677   4.412  -3.226  1.00  0.00     0.011 A
ATOM     15  C   UNL     1      -0.158   5.252  -3.964  1.00  0.00     0.055 A
ATOM     16  C   UNL     1       1.185   4.837  -1.999  1.00  0.00     0.009 A
ATOM     17  C   UNL     1      -0.484   6.516  -3.473  1.00  0.00     0.127 A
ATOM     18  C   UNL     1       0.859   6.102  -1.509  1.00  0.00     0.004 A
ATOM     19  C   UNL     1       0.024   6.942  -2.246  1.00  0.00     0.047 A
BRANCH  17  20
ATOM     20  O   UNL     1      -1.299   7.336  -4.193  1.00  0.00    -0.457 OA
BRANCH  20  21
ATOM     21  C   UNL     1      -2.587   7.536  -3.724  1.00  0.00     0.127 A
ATOM     22  C   UNL     1      -3.526   6.533  -3.887  1.00  0.00     0.047 A
ATOM     23  C   UNL     1      -2.902   8.732  -3.105  1.00  0.00     0.047 A
ATOM     24  C   UNL     1      -4.824   6.733  -3.415  1.00  0.00     0.004 A
ATOM     25  C   UNL     1      -4.199   8.933  -2.635  1.00  0.00     0.004 A
ATOM     26  C   UNL     1      -5.160   7.933  -2.788  1.00  0.00     0.000 A
ENDBRANCH  20  21
ENDBRANCH  17  20
ENDBRANCH   1  14
BRANCH   1  27
ATOM     27  C   UNL     1       2.443   2.956  -4.153  1.00  0.00     0.113 C
ATOM     28  N   UNL     1       3.555   2.882  -4.478  1.00  0.00    -0.194 NA
ENDBRANCH   1  27
TORSDOF 8
ENDMDL
MODEL 3
REMARK VINA RESULT:    -6.674      2.016      4.141
REMARK INTER + INTRA:         -11.266
REMARK INTER:                 -10.453
REMARK INTRA:                  -0.813
REMARK UNBOUND:                -1.471
REMARK SMILES CC1(C)C(C=C(Br)Br)C1C(=O)OC(C#N)c1cccc(Oc2ccccc2)c1
REMARK SMILES IDX 13 1 12 2 10 3 11 4 9 5 4 6 2 7 1 8 3 9 5 10 7 11 6 12 8 13
REMARK SMILES IDX 16 14 28 15 17 16 20 17 18 18 19 19 21 20 22 21 23 22 27 23
REMARK SMILES IDX 24 24 26 25 25 26 14 27 15 28
REMARK H PARENT
REMARK Flexibility Score: inf
ROOT
ATOM      1  C   UNL     1      -4.224   1.514  -2.590  1.00  0.00     0.309 C
ENDROOT
BRANCH   1   2
ATOM      2  O   UNL     1      -2.928   1.608  -3.198  1.00  0.00    -0.442 OA
BRANCH   2   3
ATOM      3  C   UNL     1      -1.906   1.082  -2.472  1.00  0.00     0.311 C
ATOM      4  O   UNL     1      -1.784  -0.078  -2.103  1.00  0.00    -0.252 OA
BRANCH   3   5
ATOM      5  C   UNL     1      -0.887   2.113  -2.146  1.00  0.00     0.113 C
ATOM      6  C   UNL     1       0.082   1.829  -1.044  1.00  0.00     0.035 C
ATOM      7  C   UNL     1      -0.977   2.876  -0.864  1.00  0.00    -0.014 C
ATOM      8  C   UNL     1      -2.082   2.574   0.093  1.00  0.00     0.012 C
ATOM      9  C   UNL     1      -0.605   4.321  -0.908  1.00  0.00     0.012 C
BRANCH   6  10
ATOM     10  C   UNL     1      -0.014   0.554  -0.349  1.00  0.00     0.001 C
ATOM     11  Br  UNL     1       2.281   1.003   1.267  1.00  0.00    -0.043 Br
ATOM     12  C   UNL     1       0.796   0.072   0.608  1.00  0.00     0.057 C
ATOM     13  Br  UNL     1       0.491  -1.610   1.378  1.00  0.00    -0.043 Br
ENDBRANCH   6  10
ENDBRANCH   3   5
ENDBRANCH   2   3
ENDBRANCH   1   2
BRANCH   1  14
ATOM     14  C   UNL     1      -4.864   2.859  -2.546  1.00  0.00     0.011 A
ATOM     15  C   UNL     1      -6.254   2.970  -2.500  1.00  0.00     0.055 A
ATOM     16  C   UNL     1      -4.073   4.008  -2.548  1.00  0.00     0.009 A
ATOM     17  C   UNL     1      -6.852   4.229  -2.458  1.00  0.00     0.127 A
ATOM     18  C   UNL     1      -4.671   5.267  -2.506  1.00  0.00     0.004 A
ATOM     19  C   UNL     1      -6.061   5.378  -2.461  1.00  0.00     0.047 A
BRANCH  17  20
ATOM     20  O   UNL     1      -8.208   4.338  -2.414  1.00  0.00    -0.457 OA
BRANCH  20  21
ATOM     21  C   UNL     1      -8.807   4.430  -1.168  1.00  0.00     0.127 A
ATOM     22  C   UNL     1      -9.487   3.336  -0.666  1.00  0.00     0.047 A
ATOM     23  C   UNL     1      -8.708   5.614  -0.459  1.00  0.00     0.047 A
ATOM     24  C   UNL     1     -10.090   3.428   0.589  1.00  0.00     0.004 A
ATOM     25  C   UNL     1      -9.311   5.706   0.795  1.00  0.00     0.004 A
ATOM     26  C   UNL     1     -10.002   4.613   1.320  1.00  0.00     0.000 A
ENDBRANCH  20  21
ENDBRANCH  17  20
ENDBRANCH   1  14
BRANCH   1  27
ATOM     27  C   UNL     1      -5.037   0.522  -3.323  1.00  0.00     0.113 C
ATOM     28  N   UNL     1      -5.674  -0.251  -3.908  1.00  0.00    -0.194 NA
ENDBRANCH   1  27
TORSDOF 8
ENDMDL
MODEL 4
REMARK VINA RESULT:    -6.546      1.854      2.599
REMARK INTER + INTRA:         -11.079
REMARK INTER:                  -9.501
REMARK INTRA:                  -1.578
REMARK UNBOUND:                -1.471
REMARK SMILES CC1(C)C(C=C(Br)Br)C1C(=O)OC(C#N)c1cccc(Oc2ccccc2)c1
REMARK SMILES IDX 13 1 12 2 10 3 11 4 9 5 4 6 2 7 1 8 3 9 5 10 7 11 6 12 8 13
REMARK SMILES IDX 16 14 28 15 17 16 20 17 18 18 19 19 21 20 22 21 23 22 27 23
REMARK SMILES IDX 24 24 26 25 25 26 14 27 15 28
REMARK H PARENT
REMARK Flexibility Score: inf
ROOT
ATOM      1  C   UNL     1      -4.575   1.353  -2.900  1.00  0.00     0.309 C
ENDROOT
BRANCH   1   2
ATOM      2  O   UNL     1      -3.221   1.441  -3.364  1.00  0.00    -0.442 OA
BRANCH   2   3
ATOM      3  C   UNL     1      -2.281   0.951  -2.511  1.00  0.00     0.311 C
ATOM      4  O   UNL     1      -1.575  -0.033  -2.679  1.00  0.00    -0.252 OA
BRANCH   3   5
ATOM      5  C   UNL     1      -2.187   1.775  -1.278  1.00  0.00     0.113 C
ATOM      6  C   UNL     1      -1.351   3.013  -1.314  1.00  0.00     0.035 C
ATOM      7  C   UNL     1      -0.906   1.827  -0.509  1.00  0.00    -0.014 C
ATOM      8  C   UNL     1       0.280   1.069  -1.007  1.00  0.00     0.012 C
ATOM      9  C   UNL     1      -1.009   1.862   0.979  1.00  0.00     0.012 C
BRANCH   6  10
ATOM     10  C   UNL     1      -0.677   3.357  -2.557  1.00  0.00     0.001 C
ATOM     11  Br  UNL     1       0.633   5.639  -1.480  1.00  0.00    -0.043 Br
ATOM     12  C   UNL     1       0.155   4.387  -2.787  1.00  0.00     0.057 C
ATOM     13  Br  UNL     1       0.922   4.651  -4.478  1.00  0.00    -0.043 Br
ENDBRANCH   6  10
ENDBRANCH   3   5
ENDBRANCH   2   3
ENDBRANCH   1   2
BRANCH   1  14
ATOM     14  C   UNL     1      -5.216   2.698  -2.944  1.00  0.00     0.011 A
ATOM     15  C   UNL     1      -4.632   3.726  -3.686  1.00  0.00     0.055 A
ATOM     16  C   UNL     1      -6.401   2.929  -2.246  1.00  0.00     0.009 A
ATOM     17  C   UNL     1      -5.233   4.983  -3.728  1.00  0.00     0.127 A
ATOM     18  C   UNL     1      -7.001   4.188  -2.288  1.00  0.00     0.004 A
ATOM     19  C   UNL     1      -6.417   5.215  -3.029  1.00  0.00     0.047 A
BRANCH  17  20
ATOM     20  O   UNL     1      -4.663   5.987  -4.451  1.00  0.00    -0.457 OA
BRANCH  20  21
ATOM     21  C   UNL     1      -3.669   6.734  -3.842  1.00  0.00     0.127 A
ATOM     22  C   UNL     1      -3.939   7.363  -2.640  1.00  0.00     0.047 A
ATOM     23  C   UNL     1      -2.430   6.832  -4.451  1.00  0.00     0.047 A
ATOM     24  C   UNL     1      -2.938   8.116  -2.026  1.00  0.00     0.004 A
ATOM     25  C   UNL     1      -1.430   7.585  -3.838  1.00  0.00     0.004 A
ATOM     26  C   UNL     1      -1.682   8.226  -2.625  1.00  0.00     0.000 A
ENDBRANCH  20  21
ENDBRANCH  17  20
ENDBRANCH   1  14
BRANCH   1  27
ATOM     27  C   UNL     1      -5.303   0.350  -3.703  1.00  0.00     0.113 C
ATOM     28  N   UNL     1      -5.870  -0.435  -4.343  1.00  0.00    -0.194 NA
ENDBRANCH   1  27
TORSDOF 8
ENDMDL
MODEL 5
REMARK VINA RESULT:    -6.522      3.193      5.150
REMARK INTER + INTRA:         -11.043
REMARK INTER:                  -9.807
REMARK INTRA:                  -1.235
REMARK UNBOUND:                -1.471
REMARK SMILES CC1(C)C(C=C(Br)Br)C1C(=O)OC(C#N)c1cccc(Oc2ccccc2)c1
REMARK SMILES IDX 13 1 12 2 10 3 11 4 9 5 4 6 2 7 1 8 3 9 5 10 7 11 6 12 8 13
REMARK SMILES IDX 16 14 28 15 17 16 20 17 18 18 19 19 21 20 22 21 23 22 27 23
REMARK SMILES IDX 24 24 26 25 25 26 14 27 15 28
REMARK H PARENT
REMARK Flexibility Score: inf
ROOT
ATOM      1  C   UNL     1       0.093   1.096  -1.788  1.00  0.00     0.309 C
ENDROOT
BRANCH   1   2
ATOM      2  O   UNL     1      -1.317   0.842  -1.710  1.00  0.00    -0.442 OA
BRANCH   2   3
ATOM      3  C   UNL     1      -1.782  -0.118  -2.553  1.00  0.00     0.311 C
ATOM      4  O   UNL     1      -1.536  -1.315  -2.516  1.00  0.00    -0.252 OA
BRANCH   3   5
ATOM      5  C   UNL     1      -2.675   0.460  -3.591  1.00  0.00     0.113 C
ATOM      6  C   UNL     1      -3.450   1.693  -3.254  1.00  0.00     0.035 C
ATOM      7  C   UNL     1      -4.159   0.382  -3.430  1.00  0.00    -0.014 C
ATOM      8  C   UNL     1      -4.732  -0.255  -2.208  1.00  0.00     0.012 C
ATOM      9  C   UNL     1      -4.963   0.135  -4.663  1.00  0.00     0.012 C
BRANCH   6  10
ATOM     10  C   UNL     1      -3.286   2.272  -1.929  1.00  0.00     0.001 C
ATOM     11  Br  UNL     1      -5.390   4.157  -2.245  1.00  0.00    -0.043 Br
ATOM     12  C   UNL     1      -3.990   3.273  -1.373  1.00  0.00     0.057 C
ATOM     13  Br  UNL     1      -3.612   3.872   0.364  1.00  0.00    -0.043 Br
ENDBRANCH   6  10
ENDBRANCH   3   5
ENDBRANCH   2   3
ENDBRANCH   1   2
BRANCH   1  14
ATOM     14  C   UNL     1       0.338   2.380  -2.502  1.00  0.00     0.011 A
ATOM     15  C   UNL     1       0.167   3.594  -1.835  1.00  0.00     0.055 A
ATOM     16  C   UNL     1       0.742   2.370  -3.838  1.00  0.00     0.009 A
ATOM     17  C   UNL     1       0.398   4.796  -2.504  1.00  0.00     0.127 A
ATOM     18  C   UNL     1       0.972   3.573  -4.506  1.00  0.00     0.004 A
ATOM     19  C   UNL     1       0.800   4.785  -3.839  1.00  0.00     0.047 A
BRANCH  17  20
ATOM     20  O   UNL     1       0.230   5.980  -1.854  1.00  0.00    -0.457 OA
BRANCH  20  21
ATOM     21  C   UNL     1      -0.872   6.749  -2.191  1.00  0.00     0.127 A
ATOM     22  C   UNL     1      -2.066   6.541  -1.526  1.00  0.00     0.047 A
ATOM     23  C   UNL     1      -0.749   7.703  -3.185  1.00  0.00     0.047 A
ATOM     24  C   UNL     1      -3.177   7.315  -1.865  1.00  0.00     0.004 A
ATOM     25  C   UNL     1      -1.859   8.476  -3.524  1.00  0.00     0.004 A
ATOM     26  C   UNL     1      -3.073   8.283  -2.864  1.00  0.00     0.000 A
ENDBRANCH  20  21
ENDBRANCH  17  20
ENDBRANCH   1  14
BRANCH   1  27
ATOM     27  C   UNL     1       0.668   1.082  -0.428  1.00  0.00     0.113 C
ATOM     28  N   UNL     1       1.116   1.062   0.642  1.00  0.00    -0.194 NA
ENDBRANCH   1  27
TORSDOF 8
ENDMDL
