MODEL 1
REMARK VINA RESULT:    -6.862      0.000      0.000
REMARK INTER + INTRA:         -11.532
REMARK INTER:                 -10.071
REMARK INTRA:                  -1.461
REMARK UNBOUND:                -1.461
REMARK SMILES CC1(C)C(C=C(Br)Br)C1C(=O)OC(C#N)c1cccc(Oc2ccccc2)c1
REMARK SMILES IDX 13 1 12 2 10 3 11 4 9 5 4 6 2 7 1 8 3 9 5 10 7 11 6 12 8 13
REMARK SMILES IDX 16 14 28 15 17 16 20 17 18 18 19 19 21 20 22 21 23 22 27 23
REMARK SMILES IDX 24 24 26 25 25 26 14 27 15 28
REMARK H PARENT
REMARK Flexibility Score: inf
ROOT
ATOM      1  C   UNL     1      -4.323   1.478  -2.901  1.00  0.00     0.309 C
ENDROOT
BRANCH   1   2
ATOM      2  O   UNL     1      -2.987   1.589  -3.412  1.00  0.00    -0.442 OA
BRANCH   2   3
ATOM      3  C   UNL     1      -2.003   1.210  -2.553  1.00  0.00     0.311 C
ATOM      4  O   UNL     1      -1.782   0.081  -2.137  1.00  0.00    -0.252 OA
BRANCH   3   5
ATOM      5  C   UNL     1      -1.168   2.368  -2.141  1.00  0.00     0.113 C
ATOM      6  C   UNL     1      -0.281   2.214  -0.947  1.00  0.00     0.035 C
ATOM      7  C   UNL     1      -1.485   3.108  -0.881  1.00  0.00    -0.014 C
ATOM      8  C   UNL     1      -2.626   2.656  -0.032  1.00  0.00     0.012 C
ATOM      9  C   UNL     1      -1.308   4.589  -0.903  1.00  0.00     0.012 C
BRANCH   6  10
ATOM     10  C   UNL     1      -0.272   0.935  -0.253  1.00  0.00     0.001 C
ATOM     11  Br  UNL     1       2.414   1.185   0.644  1.00  0.00    -0.043 Br
ATOM     12  C   UNL     1       0.738   0.377   0.436  1.00  0.00     0.057 C
ATOM     13  Br  UNL     1       0.539  -1.294   1.262  1.00  0.00    -0.043 Br
ENDBRANCH   6  10
ENDBRANCH   3   5
ENDBRANCH   2   3
ENDBRANCH   1   2
BRANCH   1  14
ATOM     14  C   UNL     1      -4.989   2.811  -2.927  1.00  0.00     0.011 A
ATOM     15  C   UNL     1      -4.369   3.890  -3.559  1.00  0.00     0.055 A
ATOM     16  C   UNL     1      -6.234   2.980  -2.321  1.00  0.00     0.009 A
ATOM     17  C   UNL     1      -4.993   5.136  -3.584  1.00  0.00     0.127 A
ATOM     18  C   UNL     1      -6.857   4.228  -2.345  1.00  0.00     0.004 A
ATOM     19  C   UNL     1      -6.237   5.306  -2.976  1.00  0.00     0.047 A
BRANCH  17  20
ATOM     20  O   UNL     1      -4.388   6.189  -4.199  1.00  0.00    -0.457 OA
BRANCH  20  21
ATOM     21  C   UNL     1      -3.328   6.795  -3.544  1.00  0.00     0.127 A
ATOM     22  C   UNL     1      -3.558   7.433  -2.339  1.00  0.00     0.047 A
ATOM     23  C   UNL     1      -2.068   6.746  -4.113  1.00  0.00     0.047 A
ATOM     24  C   UNL     1      -2.491   8.044  -1.679  1.00  0.00     0.004 A
ATOM     25  C   UNL     1      -1.002   7.358  -3.454  1.00  0.00     0.004 A
ATOM     26  C   UNL     1      -1.213   8.005  -2.236  1.00  0.00     0.000 A
ENDBRANCH  20  21
ENDBRANCH  17  20
ENDBRANCH   1  14
BRANCH   1  27
ATOM     27  C   UNL     1      -5.060   0.459  -3.676  1.00  0.00     0.113 C
ATOM     28  N   UNL     1      -5.640  -0.347  -4.275  1.00  0.00    -0.194 NA
ENDBRANCH   1  27
TORSDOF 8
ENDMDL
MODEL 2
REMARK VINA RESULT:    -6.673      2.022      4.145
REMARK INTER + INTRA:         -11.255
REMARK INTER:                 -10.471
REMARK INTRA:                  -0.784
REMARK UNBOUND:                -1.461
REMARK SMILES CC1(C)C(C=C(Br)Br)C1C(=O)OC(C#N)c1cccc(Oc2ccccc2)c1
REMARK SMILES IDX 13 1 12 2 10 3 11 4 9 5 4 6 2 7 1 8 3 9 5 10 7 11 6 12 8 13
REMARK SMILES IDX 16 14 28 15 17 16 20 17 18 18 19 19 21 20 22 21 23 22 27 23
REMARK SMILES IDX 24 24 26 25 25 26 14 27 15 28
REMARK H PARENT
REMARK Flexibility Score: inf
ROOT
ATOM      1  C   UNL     1      -4.199   1.590  -2.590  1.00  0.00     0.309 C
ENDROOT
BRANCH   1   2
ATOM      2  O   UNL     1      -2.907   1.724  -3.197  1.00  0.00    -0.442 OA
BRANCH   2   3
ATOM      3  C   UNL     1      -1.873   1.203  -2.484  1.00  0.00     0.311 C
ATOM      4  O   UNL     1      -1.731   0.040  -2.134  1.00  0.00    -0.252 OA
BRANCH   3   5
ATOM      5  C   UNL     1      -0.867   2.244  -2.149  1.00  0.00     0.113 C
ATOM      6  C   UNL     1       0.087   1.974  -1.030  1.00  0.00     0.035 C
ATOM      7  C   UNL     1      -0.984   3.013  -0.872  1.00  0.00    -0.014 C
ATOM      8  C   UNL     1      -2.100   2.707   0.070  1.00  0.00     0.012 C
ATOM      9  C   UNL     1      -0.623   4.460  -0.917  1.00  0.00     0.012 C
BRANCH   6  10
ATOM     10  C   UNL     1      -0.009   0.702  -0.330  1.00  0.00     0.001 C
ATOM     11  Br  UNL     1       2.396   1.069   1.140  1.00  0.00    -0.043 Br
ATOM     12  C   UNL     1       0.842   0.191   0.576  1.00  0.00     0.057 C
ATOM     13  Br  UNL     1       0.528  -1.482   1.364  1.00  0.00    -0.043 Br
ENDBRANCH   6  10
ENDBRANCH   3   5
ENDBRANCH   2   3
ENDBRANCH   1   2
BRANCH   1  14
ATOM     14  C   UNL     1      -4.887   2.912  -2.561  1.00  0.00     0.011 A
ATOM     15  C   UNL     1      -6.280   2.973  -2.505  1.00  0.00     0.055 A
ATOM     16  C   UNL     1      -4.138   4.088  -2.587  1.00  0.00     0.009 A
ATOM     17  C   UNL     1      -6.922   4.210  -2.477  1.00  0.00     0.127 A
ATOM     18  C   UNL     1      -4.782   5.326  -2.559  1.00  0.00     0.004 A
ATOM     19  C   UNL     1      -6.174   5.387  -2.505  1.00  0.00     0.047 A
BRANCH  17  20
ATOM     20  O   UNL     1      -8.282   4.271  -2.424  1.00  0.00    -0.457 OA
BRANCH  20  21
ATOM     21  C   UNL     1      -8.873   4.373  -1.175  1.00  0.00     0.127 A
ATOM     22  C   UNL     1      -8.713   5.539  -0.448  1.00  0.00     0.047 A
ATOM     23  C   UNL     1      -9.607   3.307  -0.688  1.00  0.00     0.047 A
ATOM     24  C   UNL     1      -9.308   5.642   0.810  1.00  0.00     0.004 A
ATOM     25  C   UNL     1     -10.201   3.410   0.570  1.00  0.00     0.004 A
ATOM     26  C   UNL     1     -10.053   4.578   1.318  1.00  0.00     0.000 A
ENDBRANCH  20  21
ENDBRANCH  17  20
ENDBRANCH   1  14
BRANCH   1  27
ATOM     27  C   UNL     1      -4.975   0.562  -3.313  1.00  0.00     0.113 C
ATOM     28  N   UNL     1      -5.576  -0.253  -3.880  1.00  0.00    -0.194 NA
ENDBRANCH   1  27
TORSDOF 8
ENDMDL
MODEL 3
REMARK VINA RESULT:    -6.497      3.225      5.151
REMARK INTER + INTRA:         -10.996
REMARK INTER:                  -9.854
REMARK INTRA:                  -1.143
REMARK UNBOUND:                -1.461
REMARK SMILES CC1(C)C(C=C(Br)Br)C1C(=O)OC(C#N)c1cccc(Oc2ccccc2)c1
REMARK SMILES IDX 13 1 12 2 10 3 11 4 9 5 4 6 2 7 1 8 3 9 5 10 7 11 6 12 8 13
REMARK SMILES IDX 16 14 28 15 17 16 20 17 18 18 19 19 21 20 22 21 23 22 27 23
REMARK SMILES IDX 24 24 26 25 25 26 14 27 15 28
REMARK H PARENT
REMARK Flexibility Score: inf
ROOT
ATOM      1  C   UNL     1       0.069   1.278  -1.852  1.00  0.00     0.309 C
ENDROOT
BRANCH   1   2
ATOM      2  O   UNL     1      -1.334   0.996  -1.758  1.00  0.00    -0.442 OA
BRANCH   2   3
ATOM      3  C   UNL     1      -1.778  -0.014  -2.553  1.00  0.00     0.311 C
ATOM      4  O   UNL     1      -1.492  -1.200  -2.468  1.00  0.00    -0.252 OA
BRANCH   3   5
ATOM      5  C   UNL     1      -2.702   0.490  -3.602  1.00  0.00     0.113 C
ATOM      6  C   UNL     1      -3.522   1.704  -3.303  1.00  0.00     0.035 C
ATOM      7  C   UNL     1      -4.181   0.361  -3.422  1.00  0.00    -0.014 C
ATOM      8  C   UNL     1      -4.717  -0.251  -2.171  1.00  0.00     0.012 C
ATOM      9  C   UNL     1      -4.986   0.037  -4.636  1.00  0.00     0.012 C
BRANCH   6  10
ATOM     10  C   UNL     1      -3.368   2.339  -2.003  1.00  0.00     0.001 C
ATOM     11  Br  UNL     1      -5.352   4.317  -2.481  1.00  0.00    -0.043 Br
ATOM     12  C   UNL     1      -4.032   3.403  -1.520  1.00  0.00     0.057 C
ATOM     13  Br  UNL     1      -3.677   4.067   0.198  1.00  0.00    -0.043 Br
ENDBRANCH   6  10
ENDBRANCH   3   5
ENDBRANCH   2   3
ENDBRANCH   1   2
BRANCH   1  14
ATOM     14  C   UNL     1       0.283   2.553  -2.593  1.00  0.00     0.011 A
ATOM     15  C   UNL     1       0.142   3.776  -1.935  1.00  0.00     0.055 A
ATOM     16  C   UNL     1       0.625   2.525  -3.945  1.00  0.00     0.009 A
ATOM     17  C   UNL     1       0.343   4.968  -2.629  1.00  0.00     0.127 A
ATOM     18  C   UNL     1       0.826   3.718  -4.639  1.00  0.00     0.004 A
ATOM     19  C   UNL     1       0.684   4.940  -3.981  1.00  0.00     0.047 A
BRANCH  17  20
ATOM     20  O   UNL     1       0.205   6.161  -1.988  1.00  0.00    -0.457 OA
BRANCH  20  21
ATOM     21  C   UNL     1      -0.908   6.930  -2.291  1.00  0.00     0.127 A
ATOM     22  C   UNL     1      -0.857   7.789  -3.373  1.00  0.00     0.047 A
ATOM     23  C   UNL     1      -2.040   6.817  -1.504  1.00  0.00     0.047 A
ATOM     24  C   UNL     1      -1.977   8.564  -3.679  1.00  0.00     0.004 A
ATOM     25  C   UNL     1      -3.158   7.591  -1.809  1.00  0.00     0.004 A
ATOM     26  C   UNL     1      -3.128   8.464  -2.897  1.00  0.00     0.000 A
ENDBRANCH  20  21
ENDBRANCH  17  20
ENDBRANCH   1  14
BRANCH   1  27
ATOM     27  C   UNL     1       0.654   1.304  -0.496  1.00  0.00     0.113 C
ATOM     28  N   UNL     1       1.118   1.315   0.568  1.00  0.00    -0.194 NA
ENDBRANCH   1  27
TORSDOF 8
ENDMDL
MODEL 4
REMARK VINA RESULT:    -6.473      2.172      3.064
REMARK INTER + INTRA:         -10.961
REMARK INTER:                  -9.650
REMARK INTRA:                  -1.311
REMARK UNBOUND:                -1.461
REMARK SMILES CC1(C)C(C=C(Br)Br)C1C(=O)OC(C#N)c1cccc(Oc2ccccc2)c1
REMARK SMILES IDX 13 1 12 2 10 3 11 4 9 5 4 6 2 7 1 8 3 9 5 10 7 11 6 12 8 13
REMARK SMILES IDX 16 14 28 15 17 16 20 17 18 18 19 19 21 20 22 21 23 22 27 23
REMARK SMILES IDX 24 24 26 25 25 26 14 27 15 28
REMARK H PARENT
REMARK Flexibility Score: inf
ROOT
ATOM      1  C   UNL     1      -2.716   1.040  -3.295  1.00  0.00     0.309 C
ENDROOT
BRANCH   1   2
ATOM      2  O   UNL     1      -1.533   1.605  -3.876  1.00  0.00    -0.442 OA
BRANCH   2   3
ATOM      3  C   UNL     1      -0.429   1.587  -3.081  1.00  0.00     0.311 C
ATOM      4  O   UNL     1       0.663   2.081  -3.325  1.00  0.00    -0.252 OA
BRANCH   3   5
ATOM      5  C   UNL     1      -0.690   0.865  -1.809  1.00  0.00     0.113 C
ATOM      6  C   UNL     1      -1.070   1.666  -0.604  1.00  0.00     0.035 C
ATOM      7  C   UNL     1       0.268   0.990  -0.668  1.00  0.00    -0.014 C
ATOM      8  C   UNL     1       1.470   1.863  -0.811  1.00  0.00     0.012 C
ATOM      9  C   UNL     1       0.517  -0.237   0.145  1.00  0.00     0.012 C
BRANCH   6  10
ATOM     10  C   UNL     1      -1.174   3.111  -0.739  1.00  0.00     0.001 C
ATOM     11  Br  UNL     1      -3.672   3.283   0.608  1.00  0.00    -0.043 Br
ATOM     12  C   UNL     1      -2.162   3.911  -0.304  1.00  0.00     0.057 C
ATOM     13  Br  UNL     1      -2.100   5.765  -0.584  1.00  0.00    -0.043 Br
ENDBRANCH   6  10
ENDBRANCH   3   5
ENDBRANCH   2   3
ENDBRANCH   1   2
BRANCH   1  14
ATOM     14  C   UNL     1      -3.796   2.066  -3.242  1.00  0.00     0.011 A
ATOM     15  C   UNL     1      -3.673   3.248  -3.975  1.00  0.00     0.055 A
ATOM     16  C   UNL     1      -4.930   1.845  -2.461  1.00  0.00     0.009 A
ATOM     17  C   UNL     1      -4.684   4.207  -3.925  1.00  0.00     0.127 A
ATOM     18  C   UNL     1      -5.941   2.806  -2.412  1.00  0.00     0.004 A
ATOM     19  C   UNL     1      -5.818   3.987  -3.144  1.00  0.00     0.047 A
BRANCH  17  20
ATOM     20  O   UNL     1      -4.564   5.360  -4.639  1.00  0.00    -0.457 OA
BRANCH  20  21
ATOM     21  C   UNL     1      -4.040   6.466  -3.991  1.00  0.00     0.127 A
ATOM     22  C   UNL     1      -2.713   6.798  -4.191  1.00  0.00     0.047 A
ATOM     23  C   UNL     1      -4.858   7.211  -3.160  1.00  0.00     0.047 A
ATOM     24  C   UNL     1      -2.184   7.912  -3.539  1.00  0.00     0.004 A
ATOM     25  C   UNL     1      -4.330   8.324  -2.507  1.00  0.00     0.004 A
ATOM     26  C   UNL     1      -2.994   8.676  -2.697  1.00  0.00     0.000 A
ENDBRANCH  20  21
ENDBRANCH  17  20
ENDBRANCH   1  14
BRANCH   1  27
ATOM     27  C   UNL     1      -3.111  -0.161  -4.059  1.00  0.00     0.113 C
ATOM     28  N   UNL     1      -3.429  -1.099  -4.663  1.00  0.00    -0.194 NA
ENDBRANCH   1  27
TORSDOF 8
ENDMDL
MODEL 5
REMARK VINA RESULT:    -6.403      2.795      4.825
REMARK INTER + INTRA:         -10.858
REMARK INTER:                  -9.050
REMARK INTRA:                  -1.808
REMARK UNBOUND:                -1.461
REMARK SMILES CC1(C)C(C=C(Br)Br)C1C(=O)OC(C#N)c1cccc(Oc2ccccc2)c1
REMARK SMILES IDX 13 1 12 2 10 3 11 4 9 5 4 6 2 7 1 8 3 9 5 10 7 11 6 12 8 13
REMARK SMILES IDX 16 14 28 15 17 16 20 17 18 18 19 19 21 20 22 21 23 22 27 23
REMARK SMILES IDX 24 24 26 25 25 26 14 27 15 28
REMARK H PARENT
REMARK Flexibility Score: inf
ROOT
ATOM      1  C   UNL     1       0.446   3.119  -2.702  1.00  0.00     0.309 C
ENDROOT
BRANCH   1   2
ATOM      2  O   UNL     1      -0.706   2.353  -2.326  1.00  0.00    -0.442 OA
BRANCH   2   3
ATOM      3  C   UNL     1      -1.281   1.636  -3.328  1.00  0.00     0.311 C
ATOM      4  O   UNL     1      -0.815   0.658  -3.896  1.00  0.00    -0.252 OA
BRANCH   3   5
ATOM      5  C   UNL     1      -2.612   2.186  -3.694  1.00  0.00     0.113 C
ATOM      6  C   UNL     1      -3.605   2.426  -2.603  1.00  0.00     0.035 C
ATOM      7  C   UNL     1      -3.830   1.325  -3.598  1.00  0.00    -0.014 C
ATOM      8  C   UNL     1      -3.700  -0.078  -3.106  1.00  0.00     0.012 C
ATOM      9  C   UNL     1      -4.862   1.490  -4.663  1.00  0.00     0.012 C
BRANCH   6  10
ATOM     10  C   UNL     1      -3.217   2.117  -1.235  1.00  0.00     0.001 C
ATOM     11  Br  UNL     1      -3.007   4.838  -0.439  1.00  0.00    -0.043 Br
ATOM     12  C   UNL     1      -2.940   2.978  -0.241  1.00  0.00     0.057 C
ATOM     13  Br  UNL     1      -2.456   2.364   1.464  1.00  0.00    -0.043 Br
ENDBRANCH   6  10
ENDBRANCH   3   5
ENDBRANCH   2   3
ENDBRANCH   1   2
BRANCH   1  14
ATOM     14  C   UNL     1       0.137   4.574  -2.625  1.00  0.00     0.011 A
ATOM     15  C   UNL     1      -0.839   5.126  -3.457  1.00  0.00     0.055 A
ATOM     16  C   UNL     1       0.820   5.386  -1.720  1.00  0.00     0.009 A
ATOM     17  C   UNL     1      -1.128   6.488  -3.384  1.00  0.00     0.127 A
ATOM     18  C   UNL     1       0.530   6.748  -1.648  1.00  0.00     0.004 A
ATOM     19  C   UNL     1      -0.444   7.300  -2.480  1.00  0.00     0.047 A
BRANCH  17  20
ATOM     20  O   UNL     1      -2.079   7.027  -4.196  1.00  0.00    -0.457 OA
BRANCH  20  21
ATOM     21  C   UNL     1      -3.401   6.699  -3.945  1.00  0.00     0.127 A
ATOM     22  C   UNL     1      -4.134   7.478  -3.069  1.00  0.00     0.047 A
ATOM     23  C   UNL     1      -3.954   5.599  -4.577  1.00  0.00     0.047 A
ATOM     24  C   UNL     1      -5.465   7.148  -2.815  1.00  0.00     0.004 A
ATOM     25  C   UNL     1      -5.285   5.268  -4.323  1.00  0.00     0.004 A
ATOM     26  C   UNL     1      -6.041   6.043  -3.443  1.00  0.00     0.000 A
ENDBRANCH  20  21
ENDBRANCH  17  20
ENDBRANCH   1  14
BRANCH   1  27
ATOM     27  C   UNL     1       1.589   2.735  -1.849  1.00  0.00     0.113 C
ATOM     28  N   UNL     1       2.494   2.436  -1.186  1.00  0.00    -0.194 NA
ENDBRANCH   1  27
TORSDOF 8
ENDMDL
