MODEL 1
REMARK VINA RESULT:    -6.971      0.000      0.000
REMARK INTER + INTRA:         -11.615
REMARK INTER:                 -10.232
REMARK INTRA:                  -1.384
REMARK UNBOUND:                -1.384
REMARK SMILES CC1(C)C(C=C(Br)Br)C1C(=O)OC(C#N)c1cccc(Oc2ccccc2)c1
REMARK SMILES IDX 13 1 12 2 10 3 11 4 9 5 4 6 2 7 1 8 3 9 5 10 7 11 6 12 8 13
REMARK SMILES IDX 16 14 28 15 17 16 20 17 18 18 19 19 21 20 22 21 23 22 27 23
REMARK SMILES IDX 24 24 26 25 25 26 14 27 15 28
REMARK H PARENT
REMARK Flexibility Score: inf
ROOT
ATOM      1  C   UNL     1       0.896   3.258  -2.539  1.00  0.00     0.309 C
ENDROOT
BRANCH   1   2
ATOM      2  O   UNL     1      -0.238   3.782  -3.245  1.00  0.00    -0.442 OA
BRANCH   2   3
ATOM      3  C   UNL     1      -0.169   5.104  -3.557  1.00  0.00     0.311 C
ATOM      4  O   UNL     1      -0.305   5.608  -4.662  1.00  0.00    -0.252 OA
BRANCH   3   5
ATOM      5  C   UNL     1       0.106   5.931  -2.353  1.00  0.00     0.113 C
ATOM      6  C   UNL     1      -1.052   6.374  -1.518  1.00  0.00     0.035 C
ATOM      7  C   UNL     1      -0.284   7.374  -2.332  1.00  0.00    -0.014 C
ATOM      8  C   UNL     1      -0.973   7.965  -3.516  1.00  0.00     0.012 C
ATOM      9  C   UNL     1       0.651   8.318  -1.654  1.00  0.00     0.012 C
BRANCH   6  10
ATOM     10  C   UNL     1      -2.390   5.967  -1.919  1.00  0.00     0.001 C
ATOM     11  Br  UNL     1      -2.476   3.724  -0.174  1.00  0.00    -0.043 Br
ATOM     12  C   UNL     1      -3.104   4.920  -1.471  1.00  0.00     0.057 C
ATOM     13  Br  UNL     1      -4.826   4.571  -2.126  1.00  0.00    -0.043 Br
ENDBRANCH   6  10
ENDBRANCH   3   5
ENDBRANCH   2   3
ENDBRANCH   1   2
BRANCH   1  14
ATOM     14  C   UNL     1       0.521   1.996  -1.841  1.00  0.00     0.011 A
ATOM     15  C   UNL     1      -0.314   1.072  -2.470  1.00  0.00     0.055 A
ATOM     16  C   UNL     1       1.008   1.736  -0.560  1.00  0.00     0.009 A
ATOM     17  C   UNL     1      -0.663  -0.110  -1.817  1.00  0.00     0.127 A
ATOM     18  C   UNL     1       0.658   0.554   0.093  1.00  0.00     0.004 A
ATOM     19  C   UNL     1      -0.178  -0.369  -0.535  1.00  0.00     0.047 A
BRANCH  17  20
ATOM     20  O   UNL     1      -1.480  -1.011  -2.430  1.00  0.00    -0.457 OA
BRANCH  20  21
ATOM     21  C   UNL     1      -2.683  -0.549  -2.936  1.00  0.00     0.127 A
ATOM     22  C   UNL     1      -3.407   0.380  -2.210  1.00  0.00     0.047 A
ATOM     23  C   UNL     1      -3.130  -1.028  -4.154  1.00  0.00     0.047 A
ATOM     24  C   UNL     1      -4.620   0.845  -2.720  1.00  0.00     0.004 A
ATOM     25  C   UNL     1      -4.343  -0.563  -4.663  1.00  0.00     0.004 A
ATOM     26  C   UNL     1      -5.087   0.374  -3.947  1.00  0.00     0.000 A
ENDBRANCH  20  21
ENDBRANCH  17  20
ENDBRANCH   1  14
BRANCH   1  27
ATOM     27  C   UNL     1       2.017   3.075  -3.482  1.00  0.00     0.113 C
ATOM     28  N   UNL     1       2.905   2.928  -4.215  1.00  0.00    -0.194 NA
ENDBRANCH   1  27
TORSDOF 8
ENDMDL
MODEL 2
REMARK VINA RESULT:    -6.936      2.206      5.811
REMARK INTER + INTRA:         -11.564
REMARK INTER:                 -10.082
REMARK INTRA:                  -1.483
REMARK UNBOUND:                -1.384
REMARK SMILES CC1(C)C(C=C(Br)Br)C1C(=O)OC(C#N)c1cccc(Oc2ccccc2)c1
REMARK SMILES IDX 13 1 12 2 10 3 11 4 9 5 4 6 2 7 1 8 3 9 5 10 7 11 6 12 8 13
REMARK SMILES IDX 16 14 28 15 17 16 20 17 18 18 19 19 21 20 22 21 23 22 27 23
REMARK SMILES IDX 24 24 26 25 25 26 14 27 15 28
REMARK H PARENT
REMARK Flexibility Score: inf
ROOT
ATOM      1  C   UNL     1       1.025   3.270  -3.897  1.00  0.00     0.309 C
ENDROOT
BRANCH   1   2
ATOM      2  O   UNL     1       0.697   2.209  -2.990  1.00  0.00    -0.442 OA
BRANCH   2   3
ATOM      3  C   UNL     1      -0.603   1.809  -3.010  1.00  0.00     0.311 C
ATOM      4  O   UNL     1      -1.474   2.171  -3.789  1.00  0.00    -0.252 OA
BRANCH   3   5
ATOM      5  C   UNL     1      -0.885   0.830  -1.928  1.00  0.00     0.113 C
ATOM      6  C   UNL     1      -1.359   1.348  -0.608  1.00  0.00     0.035 C
ATOM      7  C   UNL     1       0.013   0.754  -0.735  1.00  0.00    -0.014 C
ATOM      8  C   UNL     1       1.174   1.685  -0.630  1.00  0.00     0.012 C
ATOM      9  C   UNL     1       0.286  -0.604  -0.178  1.00  0.00     0.012 C
BRANCH   6  10
ATOM     10  C   UNL     1      -1.530   2.785  -0.450  1.00  0.00     0.001 C
ATOM     11  Br  UNL     1      -4.191   2.807  -1.451  1.00  0.00    -0.043 Br
ATOM     12  C   UNL     1      -2.613   3.524  -0.745  1.00  0.00     0.057 C
ATOM     13  Br  UNL     1      -2.624   5.378  -0.461  1.00  0.00    -0.043 Br
ENDBRANCH   6  10
ENDBRANCH   3   5
ENDBRANCH   2   3
ENDBRANCH   1   2
BRANCH   1  14
ATOM     14  C   UNL     1       0.693   4.586  -3.281  1.00  0.00     0.011 A
ATOM     15  C   UNL     1      -0.150   5.476  -3.947  1.00  0.00     0.055 A
ATOM     16  C   UNL     1       1.223   4.927  -2.037  1.00  0.00     0.009 A
ATOM     17  C   UNL     1      -0.462   6.706  -3.370  1.00  0.00     0.127 A
ATOM     18  C   UNL     1       0.912   6.159  -1.460  1.00  0.00     0.004 A
ATOM     19  C   UNL     1       0.070   7.049  -2.127  1.00  0.00     0.047 A
BRANCH  17  20
ATOM     20  O   UNL     1      -1.283   7.575  -4.021  1.00  0.00    -0.457 OA
BRANCH  20  21
ATOM     21  C   UNL     1      -2.603   7.646  -3.606  1.00  0.00     0.127 A
ATOM     22  C   UNL     1      -3.461   6.604  -3.908  1.00  0.00     0.047 A
ATOM     23  C   UNL     1      -3.029   8.756  -2.899  1.00  0.00     0.047 A
ATOM     24  C   UNL     1      -4.790   6.675  -3.491  1.00  0.00     0.004 A
ATOM     25  C   UNL     1      -4.358   8.827  -2.482  1.00  0.00     0.004 A
ATOM     26  C   UNL     1      -5.239   7.787  -2.776  1.00  0.00     0.000 A
ENDBRANCH  20  21
ENDBRANCH  17  20
ENDBRANCH   1  14
BRANCH   1  27
ATOM     27  C   UNL     1       2.449   3.164  -4.278  1.00  0.00     0.113 C
ATOM     28  N   UNL     1       3.564   3.073  -4.584  1.00  0.00    -0.194 NA
ENDBRANCH   1  27
TORSDOF 8
ENDMDL
MODEL 3
REMARK VINA RESULT:    -6.845      3.109      6.762
REMARK INTER + INTRA:         -11.430
REMARK INTER:                  -9.925
REMARK INTRA:                  -1.505
REMARK UNBOUND:                -1.384
REMARK SMILES CC1(C)C(C=C(Br)Br)C1C(=O)OC(C#N)c1cccc(Oc2ccccc2)c1
REMARK SMILES IDX 13 1 12 2 10 3 11 4 9 5 4 6 2 7 1 8 3 9 5 10 7 11 6 12 8 13
REMARK SMILES IDX 16 14 28 15 17 16 20 17 18 18 19 19 21 20 22 21 23 22 27 23
REMARK SMILES IDX 24 24 26 25 25 26 14 27 15 28
REMARK H PARENT
REMARK Flexibility Score: inf
ROOT
ATOM      1  C   UNL     1      -4.457   1.238  -2.820  1.00  0.00     0.309 C
ENDROOT
BRANCH   1   2
ATOM      2  O   UNL     1      -3.096   1.382  -3.247  1.00  0.00    -0.442 OA
BRANCH   2   3
ATOM      3  C   UNL     1      -2.163   0.874  -2.397  1.00  0.00     0.311 C
ATOM      4  O   UNL     1      -1.464  -0.114  -2.574  1.00  0.00    -0.252 OA
BRANCH   3   5
ATOM      5  C   UNL     1      -2.066   1.683  -1.154  1.00  0.00     0.113 C
ATOM      6  C   UNL     1      -1.177   2.884  -1.157  1.00  0.00     0.035 C
ATOM      7  C   UNL     1      -0.804   1.674  -0.352  1.00  0.00    -0.014 C
ATOM      8  C   UNL     1       0.361   0.870  -0.826  1.00  0.00     0.012 C
ATOM      9  C   UNL     1      -0.945   1.701   1.133  1.00  0.00     0.012 C
BRANCH   6  10
ATOM     10  C   UNL     1      -0.457   3.209  -2.379  1.00  0.00     0.001 C
ATOM     11  Br  UNL     1       0.442   5.739  -1.446  1.00  0.00    -0.043 Br
ATOM     12  C   UNL     1       0.245   4.322  -2.653  1.00  0.00     0.057 C
ATOM     13  Br  UNL     1       1.104   4.542  -4.305  1.00  0.00    -0.043 Br
ENDBRANCH   6  10
ENDBRANCH   3   5
ENDBRANCH   2   3
ENDBRANCH   1   2
BRANCH   1  14
ATOM     14  C   UNL     1      -5.150   2.556  -2.877  1.00  0.00     0.011 A
ATOM     15  C   UNL     1      -4.670   3.561  -3.718  1.00  0.00     0.055 A
ATOM     16  C   UNL     1      -6.279   2.785  -2.091  1.00  0.00     0.009 A
ATOM     17  C   UNL     1      -5.319   4.794  -3.771  1.00  0.00     0.127 A
ATOM     18  C   UNL     1      -6.928   4.019  -2.145  1.00  0.00     0.004 A
ATOM     19  C   UNL     1      -6.447   5.024  -2.985  1.00  0.00     0.047 A
BRANCH  17  20
ATOM     20  O   UNL     1      -4.851   5.776  -4.591  1.00  0.00    -0.457 OA
BRANCH  20  21
ATOM     21  C   UNL     1      -3.854   6.603  -4.099  1.00  0.00     0.127 A
ATOM     22  C   UNL     1      -2.575   6.495  -4.613  1.00  0.00     0.047 A
ATOM     23  C   UNL     1      -4.164   7.516  -3.107  1.00  0.00     0.047 A
ATOM     24  C   UNL     1      -1.571   7.328  -4.118  1.00  0.00     0.004 A
ATOM     25  C   UNL     1      -3.161   8.348  -2.612  1.00  0.00     0.004 A
ATOM     26  C   UNL     1      -1.864   8.255  -3.118  1.00  0.00     0.000 A
ENDBRANCH  20  21
ENDBRANCH  17  20
ENDBRANCH   1  14
BRANCH   1  27
ATOM     27  C   UNL     1      -5.123   0.210  -3.645  1.00  0.00     0.113 C
ATOM     28  N   UNL     1      -5.654  -0.591  -4.296  1.00  0.00    -0.194 NA
ENDBRANCH   1  27
TORSDOF 8
ENDMDL
MODEL 4
REMARK VINA RESULT:    -6.806      4.289      6.763
REMARK INTER + INTRA:         -11.373
REMARK INTER:                 -10.258
REMARK INTRA:                  -1.115
REMARK UNBOUND:                -1.384
REMARK SMILES CC1(C)C(C=C(Br)Br)C1C(=O)OC(C#N)c1cccc(Oc2ccccc2)c1
REMARK SMILES IDX 13 1 12 2 10 3 11 4 9 5 4 6 2 7 1 8 3 9 5 10 7 11 6 12 8 13
REMARK SMILES IDX 16 14 28 15 17 16 20 17 18 18 19 19 21 20 22 21 23 22 27 23
REMARK SMILES IDX 24 24 26 25 25 26 14 27 15 28
REMARK H PARENT
REMARK Flexibility Score: inf
ROOT
ATOM      1  C   UNL     1      -4.259   1.544  -2.422  1.00  0.00     0.309 C
ENDROOT
BRANCH   1   2
ATOM      2  O   UNL     1      -2.902   1.649  -2.874  1.00  0.00    -0.442 OA
BRANCH   2   3
ATOM      3  C   UNL     1      -1.978   1.042  -2.082  1.00  0.00     0.311 C
ATOM      4  O   UNL     1      -1.321   0.046  -2.348  1.00  0.00    -0.252 OA
BRANCH   3   5
ATOM      5  C   UNL     1      -1.832   1.747  -0.782  1.00  0.00     0.113 C
ATOM      6  C   UNL     1      -0.932   2.939  -0.718  1.00  0.00     0.035 C
ATOM      7  C   UNL     1      -0.543   1.665  -0.027  1.00  0.00    -0.014 C
ATOM      8  C   UNL     1       0.597   0.894  -0.604  1.00  0.00     0.012 C
ATOM      9  C   UNL     1      -0.634   1.572   1.459  1.00  0.00     0.012 C
BRANCH   6  10
ATOM     10  C   UNL     1      -0.250   3.357  -1.934  1.00  0.00     0.001 C
ATOM     11  Br  UNL     1      -1.045   6.077  -1.714  1.00  0.00    -0.043 Br
ATOM     12  C   UNL     1      -0.201   4.588  -2.471  1.00  0.00     0.057 C
ATOM     13  Br  UNL     1       0.742   4.914  -4.059  1.00  0.00    -0.043 Br
ENDBRANCH   6  10
ENDBRANCH   3   5
ENDBRANCH   2   3
ENDBRANCH   1   2
BRANCH   1  14
ATOM     14  C   UNL     1      -4.918   2.880  -2.477  1.00  0.00     0.011 A
ATOM     15  C   UNL     1      -6.310   2.975  -2.425  1.00  0.00     0.055 A
ATOM     16  C   UNL     1      -4.144   4.036  -2.579  1.00  0.00     0.009 A
ATOM     17  C   UNL     1      -6.925   4.225  -2.475  1.00  0.00     0.127 A
ATOM     18  C   UNL     1      -4.761   5.286  -2.630  1.00  0.00     0.004 A
ATOM     19  C   UNL     1      -6.151   5.381  -2.578  1.00  0.00     0.047 A
BRANCH  17  20
ATOM     20  O   UNL     1      -8.283   4.318  -2.425  1.00  0.00    -0.457 OA
BRANCH  20  21
ATOM     21  C   UNL     1      -8.877   4.383  -1.175  1.00  0.00     0.127 A
ATOM     22  C   UNL     1      -9.604   3.299  -0.719  1.00  0.00     0.047 A
ATOM     23  C   UNL     1      -8.729   5.530  -0.417  1.00  0.00     0.047 A
ATOM     24  C   UNL     1     -10.204   3.364   0.540  1.00  0.00     0.004 A
ATOM     25  C   UNL     1      -9.328   5.596   0.840  1.00  0.00     0.004 A
ATOM     26  C   UNL     1     -10.065   4.512   1.320  1.00  0.00     0.000 A
ENDBRANCH  20  21
ENDBRANCH  17  20
ENDBRANCH   1  14
BRANCH   1  27
ATOM     27  C   UNL     1      -4.966   0.529  -3.229  1.00  0.00     0.113 C
ATOM     28  N   UNL     1      -5.530  -0.266  -3.859  1.00  0.00    -0.194 NA
ENDBRANCH   1  27
TORSDOF 8
ENDMDL
MODEL 5
REMARK VINA RESULT:    -6.796      1.908      2.798
REMARK INTER + INTRA:         -11.358
REMARK INTER:                 -10.664
REMARK INTRA:                  -0.694
REMARK UNBOUND:                -1.384
REMARK SMILES CC1(C)C(C=C(Br)Br)C1C(=O)OC(C#N)c1cccc(Oc2ccccc2)c1
REMARK SMILES IDX 13 1 12 2 10 3 11 4 9 5 4 6 2 7 1 8 3 9 5 10 7 11 6 12 8 13
REMARK SMILES IDX 16 14 28 15 17 16 20 17 18 18 19 19 21 20 22 21 23 22 27 23
REMARK SMILES IDX 24 24 26 25 25 26 14 27 15 28
REMARK H PARENT
REMARK Flexibility Score: inf
ROOT
ATOM      1  C   UNL     1       1.182   3.758  -1.905  1.00  0.00     0.309 C
ENDROOT
BRANCH   1   2
ATOM      2  O   UNL     1       0.406   4.702  -1.153  1.00  0.00    -0.442 OA
BRANCH   2   3
ATOM      3  C   UNL     1      -0.698   5.180  -1.785  1.00  0.00     0.311 C
ATOM      4  O   UNL     1      -0.826   6.272  -2.322  1.00  0.00    -0.252 OA
BRANCH   3   5
ATOM      5  C   UNL     1      -1.807   4.192  -1.761  1.00  0.00     0.113 C
ATOM      6  C   UNL     1      -3.211   4.697  -1.853  1.00  0.00     0.035 C
ATOM      7  C   UNL     1      -2.707   4.106  -0.570  1.00  0.00    -0.014 C
ATOM      8  C   UNL     1      -2.498   5.037   0.577  1.00  0.00     0.012 C
ATOM      9  C   UNL     1      -3.156   2.743  -0.157  1.00  0.00     0.012 C
BRANCH   6  10
ATOM     10  C   UNL     1      -3.423   6.132  -1.972  1.00  0.00     0.001 C
ATOM     11  Br  UNL     1      -5.505   5.895  -3.893  1.00  0.00    -0.043 Br
ATOM     12  C   UNL     1      -4.310   6.774  -2.752  1.00  0.00     0.057 C
ATOM     13  Br  UNL     1      -4.419   8.646  -2.754  1.00  0.00    -0.043 Br
ENDBRANCH   6  10
ENDBRANCH   3   5
ENDBRANCH   2   3
ENDBRANCH   1   2
BRANCH   1  14
ATOM     14  C   UNL     1       0.550   2.410  -1.836  1.00  0.00     0.011 A
ATOM     15  C   UNL     1      -0.084   1.877  -2.959  1.00  0.00     0.055 A
ATOM     16  C   UNL     1       0.593   1.680  -0.648  1.00  0.00     0.009 A
ATOM     17  C   UNL     1      -0.674   0.616  -2.893  1.00  0.00     0.127 A
ATOM     18  C   UNL     1       0.001   0.419  -0.583  1.00  0.00     0.004 A
ATOM     19  C   UNL     1      -0.633  -0.114  -1.705  1.00  0.00     0.047 A
BRANCH  17  20
ATOM     20  O   UNL     1      -1.293   0.096  -3.989  1.00  0.00    -0.457 OA
BRANCH  20  21
ATOM     21  C   UNL     1      -2.675   0.178  -4.047  1.00  0.00     0.127 A
ATOM     22  C   UNL     1      -3.407  -0.965  -4.309  1.00  0.00     0.047 A
ATOM     23  C   UNL     1      -3.286   1.402  -3.841  1.00  0.00     0.047 A
ATOM     24  C   UNL     1      -4.799  -0.882  -4.368  1.00  0.00     0.004 A
ATOM     25  C   UNL     1      -4.677   1.485  -3.901  1.00  0.00     0.004 A
ATOM     26  C   UNL     1      -5.434   0.343  -4.163  1.00  0.00     0.000 A
ENDBRANCH  20  21
ENDBRANCH  17  20
ENDBRANCH   1  14
BRANCH   1  27
ATOM     27  C   UNL     1       1.333   4.244  -3.292  1.00  0.00     0.113 C
ATOM     28  N   UNL     1       1.458   4.634  -4.377  1.00  0.00    -0.194 NA
ENDBRANCH   1  27
TORSDOF 8
ENDMDL
