MODEL 1
REMARK VINA RESULT:    -6.547      0.000      0.000
REMARK INTER + INTRA:         -12.311
REMARK INTER:                  -9.226
REMARK INTRA:                  -3.086
REMARK UNBOUND:                -3.086
REMARK SMILES CC1(C)[C@H](C=C(Cl)Cl)[C@H]1C(=O)OCc1cccc(Oc2ccccc2)c1
REMARK SMILES IDX 13 1 12 2 10 3 11 4 9 5 4 6 2 7 1 8 3 9 5 10 7 11 6 12 8 13
REMARK SMILES IDX 14 14 26 15 15 16 18 17 16 18 17 19 19 20 20 21 21 22 25 23
REMARK SMILES IDX 22 24 24 25 23 26
REMARK H PARENT
REMARK Flexibility Score: inf
ROOT
ATOM      1  C   UNL     1      -0.691   6.723  -3.203  1.00  0.00     0.268 C 
ENDROOT
BRANCH   1   2
ATOM      2  O   UNL     1      -0.580   5.340  -2.895  1.00  0.00    -0.461 OA
BRANCH   2   3
ATOM      3  C   UNL     1      -0.207   5.044  -1.616  1.00  0.00     0.310 C 
ATOM      4  O   UNL     1       0.524   5.710  -0.897  1.00  0.00    -0.252 OA
BRANCH   3   5
ATOM      5  C   UNL     1      -0.805   3.768  -1.147  1.00  0.00     0.113 C 
ATOM      6  C   UNL     1      -2.010   3.244  -1.862  1.00  0.00     0.035 C 
ATOM      7  C   UNL     1      -2.134   3.770  -0.462  1.00  0.00    -0.014 C 
ATOM      8  C   UNL     1      -2.404   2.781   0.622  1.00  0.00     0.012 C 
ATOM      9  C   UNL     1      -2.773   5.097  -0.222  1.00  0.00     0.012 C 
BRANCH   6  10
ATOM     10  C   UNL     1      -2.090   1.814  -2.122  1.00  0.00     0.011 C 
ATOM     11  Cl  UNL     1      -0.702   1.926  -4.428  1.00  0.00    -0.071 Cl
ATOM     12  C   UNL     1      -1.581   1.142  -3.166  1.00  0.00     0.103 C 
ATOM     13  Cl  UNL     1      -1.791  -0.570  -3.290  1.00  0.00    -0.071 Cl
ENDBRANCH   6  10
ENDBRANCH   3   5
ENDBRANCH   2   3
ENDBRANCH   1   2
BRANCH   1  14
ATOM     14  C   UNL     1      -2.114   7.148  -3.072  1.00  0.00    -0.007 A 
ATOM     15  C   UNL     1      -3.131   6.352  -3.600  1.00  0.00     0.054 A 
ATOM     16  C   UNL     1      -2.429   8.340  -2.419  1.00  0.00     0.007 A 
ATOM     17  C   UNL     1      -4.462   6.750  -3.477  1.00  0.00     0.127 A 
ATOM     18  C   UNL     1      -3.760   8.738  -2.297  1.00  0.00     0.004 A 
ATOM     19  C   UNL     1      -4.777   7.942  -2.826  1.00  0.00     0.047 A 
BRANCH  17  20
ATOM     20  O   UNL     1      -5.454   5.974  -3.993  1.00  0.00    -0.457 OA
BRANCH  20  21
ATOM     21  C   UNL     1      -5.443   4.624  -3.684  1.00  0.00     0.127 A 
ATOM     22  C   UNL     1      -5.789   4.223  -2.405  1.00  0.00     0.047 A 
ATOM     23  C   UNL     1      -5.088   3.712  -4.660  1.00  0.00     0.047 A 
ATOM     24  C   UNL     1      -5.777   2.864  -2.094  1.00  0.00     0.004 A 
ATOM     25  C   UNL     1      -5.078   2.352  -4.348  1.00  0.00     0.004 A 
ATOM     26  C   UNL     1      -5.423   1.928  -3.065  1.00  0.00     0.000 A 
ENDBRANCH  20  21
ENDBRANCH  17  20
ENDBRANCH   1  14
TORSDOF 7
ENDMDL
MODEL 2
REMARK VINA RESULT:    -6.136      2.692      4.863
REMARK INTER + INTRA:         -11.733
REMARK INTER:                  -9.743
REMARK INTRA:                  -1.990
REMARK UNBOUND:                -3.086
REMARK SMILES CC1(C)[C@H](C=C(Cl)Cl)[C@H]1C(=O)OCc1cccc(Oc2ccccc2)c1
REMARK SMILES IDX 13 1 12 2 10 3 11 4 9 5 4 6 2 7 1 8 3 9 5 10 7 11 6 12 8 13
REMARK SMILES IDX 14 14 26 15 15 16 18 17 16 18 17 19 19 20 20 21 21 22 25 23
REMARK SMILES IDX 22 24 24 25 23 26
REMARK H PARENT
REMARK Flexibility Score: inf
ROOT
ATOM      1  C   UNL     1      -3.784   0.943  -4.338  1.00  0.00     0.268 C 
ENDROOT
BRANCH   1   2
ATOM      2  O   UNL     1      -2.389   1.082  -4.099  1.00  0.00    -0.461 OA
BRANCH   2   3
ATOM      3  C   UNL     1      -1.931   0.553  -2.928  1.00  0.00     0.310 C 
ATOM      4  O   UNL     1      -2.291  -0.496  -2.412  1.00  0.00    -0.252 OA
BRANCH   3   5
ATOM      5  C   UNL     1      -0.897   1.413  -2.299  1.00  0.00     0.113 C 
ATOM      6  C   UNL     1      -0.474   1.105  -0.898  1.00  0.00     0.035 C 
ATOM      7  C   UNL     1      -1.271   2.344  -1.189  1.00  0.00    -0.014 C 
ATOM      8  C   UNL     1      -0.570   3.655  -1.062  1.00  0.00     0.012 C 
ATOM      9  C   UNL     1      -2.712   2.405  -0.808  1.00  0.00     0.012 C 
BRANCH   6  10
ATOM     10  C   UNL     1       0.941   1.199  -0.568  1.00  0.00     0.011 C 
ATOM     11  Cl  UNL     1       0.581   0.834   2.077  1.00  0.00    -0.071 Cl
ATOM     12  C   UNL     1       1.507   1.101   0.644  1.00  0.00     0.103 C 
ATOM     13  Cl  UNL     1       3.221   1.245   0.823  1.00  0.00    -0.071 Cl
ENDBRANCH   6  10
ENDBRANCH   3   5
ENDBRANCH   2   3
ENDBRANCH   1   2
BRANCH   1  14
ATOM     14  C   UNL     1      -4.498   2.146  -3.823  1.00  0.00    -0.007 A 
ATOM     15  C   UNL     1      -4.134   3.417  -4.268  1.00  0.00     0.054 A 
ATOM     16  C   UNL     1      -5.531   2.001  -2.897  1.00  0.00     0.007 A 
ATOM     17  C   UNL     1      -4.803   4.542  -3.786  1.00  0.00     0.127 A 
ATOM     18  C   UNL     1      -6.199   3.126  -2.415  1.00  0.00     0.004 A 
ATOM     19  C   UNL     1      -5.835   4.396  -2.860  1.00  0.00     0.047 A 
BRANCH  17  20
ATOM     20  O   UNL     1      -4.448   5.783  -4.221  1.00  0.00    -0.457 OA
BRANCH  20  21
ATOM     21  C   UNL     1      -3.890   6.652  -3.300  1.00  0.00     0.127 A 
ATOM     22  C   UNL     1      -4.496   7.876  -3.075  1.00  0.00     0.047 A 
ATOM     23  C   UNL     1      -2.741   6.277  -2.629  1.00  0.00     0.047 A 
ATOM     24  C   UNL     1      -3.934   8.752  -2.147  1.00  0.00     0.004 A 
ATOM     25  C   UNL     1      -2.179   7.154  -1.700  1.00  0.00     0.004 A 
ATOM     26  C   UNL     1      -2.776   8.391  -1.460  1.00  0.00     0.000 A 
ENDBRANCH  20  21
ENDBRANCH  17  20
ENDBRANCH   1  14
TORSDOF 7
ENDMDL
MODEL 3
REMARK VINA RESULT:    -6.115      2.434      4.694
REMARK INTER + INTRA:         -11.702
REMARK INTER:                  -9.621
REMARK INTRA:                  -2.081
REMARK UNBOUND:                -3.086
REMARK SMILES CC1(C)[C@H](C=C(Cl)Cl)[C@H]1C(=O)OCc1cccc(Oc2ccccc2)c1
REMARK SMILES IDX 13 1 12 2 10 3 11 4 9 5 4 6 2 7 1 8 3 9 5 10 7 11 6 12 8 13
REMARK SMILES IDX 14 14 26 15 15 16 18 17 16 18 17 19 19 20 20 21 21 22 25 23
REMARK SMILES IDX 22 24 24 25 23 26
REMARK H PARENT
REMARK Flexibility Score: inf
ROOT
ATOM      1  C   UNL     1      -4.737   1.675  -3.735  1.00  0.00     0.268 C 
ENDROOT
BRANCH   1   2
ATOM      2  O   UNL     1      -3.321   1.737  -3.853  1.00  0.00    -0.461 OA
BRANCH   2   3
ATOM      3  C   UNL     1      -2.615   1.137  -2.852  1.00  0.00     0.310 C 
ATOM      4  O   UNL     1      -2.784   0.007  -2.416  1.00  0.00    -0.252 OA
BRANCH   3   5
ATOM      5  C   UNL     1      -1.560   2.029  -2.307  1.00  0.00     0.113 C 
ATOM      6  C   UNL     1      -0.897   1.643  -1.023  1.00  0.00     0.035 C 
ATOM      7  C   UNL     1      -1.819   2.826  -1.068  1.00  0.00    -0.014 C 
ATOM      8  C   UNL     1      -1.206   4.179  -0.923  1.00  0.00     0.012 C 
ATOM      9  C   UNL     1      -3.181   2.728  -0.469  1.00  0.00     0.012 C 
BRANCH   6  10
ATOM     10  C   UNL     1       0.542   1.833  -0.906  1.00  0.00     0.011 C 
ATOM     11  Cl  UNL     1       0.868  -0.075   0.969  1.00  0.00    -0.071 Cl
ATOM     12  C   UNL     1       1.392   1.173  -0.104  1.00  0.00     0.103 C 
ATOM     13  Cl  UNL     1       3.078   1.555  -0.114  1.00  0.00    -0.071 Cl
ENDBRANCH   6  10
ENDBRANCH   3   5
ENDBRANCH   2   3
ENDBRANCH   1   2
BRANCH   1  14
ATOM     14  C   UNL     1      -5.259   3.009  -3.320  1.00  0.00    -0.007 A 
ATOM     15  C   UNL     1      -4.684   4.173  -3.831  1.00  0.00     0.054 A 
ATOM     16  C   UNL     1      -6.324   3.092  -2.422  1.00  0.00     0.007 A 
ATOM     17  C   UNL     1      -5.174   5.420  -3.442  1.00  0.00     0.127 A 
ATOM     18  C   UNL     1      -6.812   4.339  -2.033  1.00  0.00     0.004 A 
ATOM     19  C   UNL     1      -6.237   5.503  -2.544  1.00  0.00     0.047 A 
BRANCH  17  20
ATOM     20  O   UNL     1      -4.613   6.556  -3.941  1.00  0.00    -0.457 OA
BRANCH  20  21
ATOM     21  C   UNL     1      -3.395   6.956  -3.418  1.00  0.00     0.127 A 
ATOM     22  C   UNL     1      -2.252   6.806  -4.184  1.00  0.00     0.047 A 
ATOM     23  C   UNL     1      -3.351   7.494  -2.146  1.00  0.00     0.047 A 
ATOM     24  C   UNL     1      -1.025   7.209  -3.659  1.00  0.00     0.004 A 
ATOM     25  C   UNL     1      -2.123   7.897  -1.620  1.00  0.00     0.004 A 
ATOM     26  C   UNL     1      -0.960   7.755  -2.377  1.00  0.00     0.000 A 
ENDBRANCH  20  21
ENDBRANCH  17  20
ENDBRANCH   1  14
TORSDOF 7
ENDMDL
MODEL 4
REMARK VINA RESULT:    -6.028      3.053      5.595
REMARK INTER + INTRA:         -11.580
REMARK INTER:                 -10.005
REMARK INTRA:                  -1.575
REMARK UNBOUND:                -3.086
REMARK SMILES CC1(C)[C@H](C=C(Cl)Cl)[C@H]1C(=O)OCc1cccc(Oc2ccccc2)c1
REMARK SMILES IDX 13 1 12 2 10 3 11 4 9 5 4 6 2 7 1 8 3 9 5 10 7 11 6 12 8 13
REMARK SMILES IDX 14 14 26 15 15 16 18 17 16 18 17 19 19 20 20 21 21 22 25 23
REMARK SMILES IDX 22 24 24 25 23 26
REMARK H PARENT
REMARK Flexibility Score: inf
ROOT
ATOM      1  C   UNL     1       1.201   3.373  -2.503  1.00  0.00     0.268 C 
ENDROOT
BRANCH   1   2
ATOM      2  O   UNL     1       0.118   4.195  -2.920  1.00  0.00    -0.461 OA
BRANCH   2   3
ATOM      3  C   UNL     1      -0.260   5.169  -2.042  1.00  0.00     0.310 C 
ATOM      4  O   UNL     1       0.446   5.703  -1.198  1.00  0.00    -0.252 OA
BRANCH   3   5
ATOM      5  C   UNL     1      -1.685   5.546  -2.215  1.00  0.00     0.113 C 
ATOM      6  C   UNL     1      -2.331   6.382  -1.156  1.00  0.00     0.035 C 
ATOM      7  C   UNL     1      -2.731   4.946  -1.330  1.00  0.00    -0.014 C 
ATOM      8  C   UNL     1      -4.091   4.675  -1.880  1.00  0.00     0.012 C 
ATOM      9  C   UNL     1      -2.281   3.925  -0.340  1.00  0.00     0.012 C 
BRANCH   6  10
ATOM     10  C   UNL     1      -3.225   7.453  -1.573  1.00  0.00     0.011 C 
ATOM     11  Cl  UNL     1      -1.540   8.446  -3.425  1.00  0.00    -0.071 Cl
ATOM     12  C   UNL     1      -3.006   8.382  -2.515  1.00  0.00     0.103 C 
ATOM     13  Cl  UNL     1      -4.207   9.579  -2.859  1.00  0.00    -0.071 Cl
ENDBRANCH   6  10
ENDBRANCH   3   5
ENDBRANCH   2   3
ENDBRANCH   1   2
BRANCH   1  14
ATOM     14  C   UNL     1       0.669   2.112  -1.911  1.00  0.00    -0.007 A 
ATOM     15  C   UNL     1      -0.138   1.269  -2.676  1.00  0.00     0.054 A 
ATOM     16  C   UNL     1       0.977   1.776  -0.593  1.00  0.00     0.007 A 
ATOM     17  C   UNL     1      -0.635   0.089  -2.122  1.00  0.00     0.127 A 
ATOM     18  C   UNL     1       0.479   0.597  -0.039  1.00  0.00     0.004 A 
ATOM     19  C   UNL     1      -0.327  -0.246  -0.804  1.00  0.00     0.047 A 
BRANCH  17  20
ATOM     20  O   UNL     1      -1.422  -0.734  -2.868  1.00  0.00    -0.457 OA
BRANCH  20  21
ATOM     21  C   UNL     1      -2.720  -0.327  -3.123  1.00  0.00     0.127 A 
ATOM     22  C   UNL     1      -3.312   0.602  -2.285  1.00  0.00     0.047 A 
ATOM     23  C   UNL     1      -3.393  -0.858  -4.208  1.00  0.00     0.047 A 
ATOM     24  C   UNL     1      -4.620   1.012  -2.542  1.00  0.00     0.004 A 
ATOM     25  C   UNL     1      -4.701  -0.447  -4.465  1.00  0.00     0.004 A 
ATOM     26  C   UNL     1      -5.314   0.488  -3.632  1.00  0.00     0.000 A 
ENDBRANCH  20  21
ENDBRANCH  17  20
ENDBRANCH   1  14
TORSDOF 7
ENDMDL
MODEL 5
REMARK VINA RESULT:    -5.942      2.576      5.049
REMARK INTER + INTRA:         -11.460
REMARK INTER:                  -9.406
REMARK INTRA:                  -2.053
REMARK UNBOUND:                -3.086
REMARK SMILES CC1(C)[C@H](C=C(Cl)Cl)[C@H]1C(=O)OCc1cccc(Oc2ccccc2)c1
REMARK SMILES IDX 13 1 12 2 10 3 11 4 9 5 4 6 2 7 1 8 3 9 5 10 7 11 6 12 8 13
REMARK SMILES IDX 14 14 26 15 15 16 18 17 16 18 17 19 19 20 20 21 21 22 25 23
REMARK SMILES IDX 22 24 24 25 23 26
REMARK H PARENT
REMARK Flexibility Score: inf
ROOT
ATOM      1  C   UNL     1      -1.021   0.765  -2.025  1.00  0.00     0.268 C 
ENDROOT
BRANCH   1   2
ATOM      2  O   UNL     1      -0.502   1.998  -2.505  1.00  0.00    -0.461 OA
BRANCH   2   3
ATOM      3  C   UNL     1      -0.398   2.998  -1.582  1.00  0.00     0.310 C 
ATOM      4  O   UNL     1       0.609   3.322  -0.968  1.00  0.00    -0.252 OA
BRANCH   3   5
ATOM      5  C   UNL     1      -1.691   3.700  -1.378  1.00  0.00     0.113 C 
ATOM      6  C   UNL     1      -1.724   4.868  -0.445  1.00  0.00     0.035 C 
ATOM      7  C   UNL     1      -2.407   3.585  -0.070  1.00  0.00    -0.014 C 
ATOM      8  C   UNL     1      -3.899   3.583  -0.047  1.00  0.00     0.012 C 
ATOM      9  C   UNL     1      -1.800   2.696   0.962  1.00  0.00     0.012 C 
BRANCH   6  10
ATOM     10  C   UNL     1      -2.506   6.035  -0.828  1.00  0.00     0.011 C 
ATOM     11  Cl  UNL     1      -0.583   7.090  -2.393  1.00  0.00    -0.071 Cl
ATOM     12  C   UNL     1      -2.136   7.037  -1.640  1.00  0.00     0.103 C 
ATOM     13  Cl  UNL     1      -3.222   8.343  -1.968  1.00  0.00    -0.071 Cl
ENDBRANCH   6  10
ENDBRANCH   3   5
ENDBRANCH   2   3
ENDBRANCH   1   2
BRANCH   1  14
ATOM     14  C   UNL     1      -2.216   0.381  -2.831  1.00  0.00    -0.007 A 
ATOM     15  C   UNL     1      -3.411   1.084  -2.683  1.00  0.00     0.054 A 
ATOM     16  C   UNL     1      -2.137  -0.679  -3.734  1.00  0.00     0.007 A 
ATOM     17  C   UNL     1      -4.528   0.725  -3.438  1.00  0.00     0.127 A 
ATOM     18  C   UNL     1      -3.253  -1.038  -4.488  1.00  0.00     0.004 A 
ATOM     19  C   UNL     1      -4.449  -0.335  -4.340  1.00  0.00     0.047 A 
BRANCH  17  20
ATOM     20  O   UNL     1      -5.696   1.411  -3.294  1.00  0.00    -0.457 OA
BRANCH  20  21
ATOM     21  C   UNL     1      -5.629   2.793  -3.242  1.00  0.00     0.127 A 
ATOM     22  C   UNL     1      -6.483   3.476  -2.394  1.00  0.00     0.047 A 
ATOM     23  C   UNL     1      -4.712   3.455  -4.037  1.00  0.00     0.047 A 
ATOM     24  C   UNL     1      -6.416   4.868  -2.340  1.00  0.00     0.004 A 
ATOM     25  C   UNL     1      -4.646   4.847  -3.983  1.00  0.00     0.004 A 
ATOM     26  C   UNL     1      -5.498   5.554  -3.134  1.00  0.00     0.000 A 
ENDBRANCH  20  21
ENDBRANCH  17  20
ENDBRANCH   1  14
TORSDOF 7
ENDMDL
