MODEL 1
REMARK VINA RESULT:    -6.237      0.000      0.000
REMARK INTER + INTRA:          -7.946
REMARK INTER:                  -7.330
REMARK INTRA:                  -0.616
REMARK UNBOUND:                -0.616
REMARK SMILES Clc1ccc(C(c2ccc(Cl)cc2)C(Cl)(Cl)Cl)cc1
REMARK SMILES IDX 6 1 14 2 15 3 16 4 17 5 5 6 4 7 18 8 3 9 19 10 2 11 1 12
REMARK SMILES IDX 7 13 8 14 13 15 9 16 12 17 10 18 11 19
REMARK H PARENT
REMARK Flexibility Score: inf
ROOT
ATOM      1  C   UNL     1      -1.298   1.963  -1.134  1.00  0.00     0.101 C 
ENDROOT
BRANCH   1   2
ATOM      2  C   UNL     1      -1.728   1.103  -2.395  1.00  0.00     0.201 C 
ATOM      3  Cl  UNL     1      -1.102   1.721  -3.958  1.00  0.00    -0.083 Cl
ATOM      4  Cl  UNL     1      -3.537   1.107  -2.534  1.00  0.00    -0.083 Cl
ATOM      5  Cl  UNL     1      -1.248  -0.629  -2.237  1.00  0.00    -0.083 Cl
ENDBRANCH   1   2
BRANCH   1   6
ATOM      6  C   UNL     1      -1.710   3.396  -1.158  1.00  0.00    -0.036 A 
ATOM      7  C   UNL     1      -2.229   3.991  -0.008  1.00  0.00     0.006 A 
ATOM      8  C   UNL     1      -1.579   4.140  -2.330  1.00  0.00     0.006 A 
ATOM      9  C   UNL     1      -2.616   5.331  -0.031  1.00  0.00     0.021 A 
ATOM     10  C   UNL     1      -1.965   5.480  -2.353  1.00  0.00     0.021 A 
ATOM     11  C   UNL     1      -2.484   6.076  -1.204  1.00  0.00     0.041 A 
ATOM     12  Cl  UNL     1      -2.961   7.729  -1.232  1.00  0.00    -0.084 Cl
ENDBRANCH   1   6
BRANCH   1  13
ATOM     13  C   UNL     1       0.154   1.765  -0.630  1.00  0.00    -0.036 A 
ATOM     14  C   UNL     1       0.338   1.091   0.545  1.00  0.00     0.006 A 
ATOM     15  C   UNL     1       1.169   2.278  -1.388  1.00  0.00     0.006 A 
ATOM     16  C   UNL     1       1.645   0.915   0.998  1.00  0.00     0.021 A 
ATOM     17  C   UNL     1       2.477   2.102  -0.934  1.00  0.00     0.021 A 
ATOM     18  C   UNL     1       2.714   1.420   0.259  1.00  0.00     0.041 A 
ATOM     19  Cl  UNL     1       4.328   1.204   0.819  1.00  0.00    -0.084 Cl
ENDBRANCH   1  13
TORSDOF 3
ENDMDL
MODEL 2
REMARK VINA RESULT:    -5.961      2.323      4.902
REMARK INTER + INTRA:          -7.622
REMARK INTER:                  -7.012
REMARK INTRA:                  -0.610
REMARK UNBOUND:                -0.616
REMARK SMILES Clc1ccc(C(c2ccc(Cl)cc2)C(Cl)(Cl)Cl)cc1
REMARK SMILES IDX 6 1 14 2 15 3 16 4 17 5 5 6 4 7 18 8 3 9 19 10 2 11 1 12
REMARK SMILES IDX 7 13 8 14 13 15 9 16 12 17 10 18 11 19
REMARK H PARENT
REMARK Flexibility Score: inf
ROOT
ATOM      1  C   UNL     1      -0.202   1.441  -1.844  1.00  0.00     0.101 C 
ENDROOT
BRANCH   1   2
ATOM      2  C   UNL     1       0.188   0.907  -0.402  1.00  0.00     0.201 C 
ATOM      3  Cl  UNL     1      -0.820   1.565   0.927  1.00  0.00    -0.083 Cl
ATOM      4  Cl  UNL     1       1.898   1.386  -0.028  1.00  0.00    -0.083 Cl
ATOM      5  Cl  UNL     1       0.146  -0.894  -0.306  1.00  0.00    -0.083 Cl
ENDBRANCH   1   2
BRANCH   1   6
ATOM      6  C   UNL     1      -0.110   2.917  -2.033  1.00  0.00    -0.036 A 
ATOM      7  C   UNL     1       0.448   3.437  -3.200  1.00  0.00     0.006 A 
ATOM      8  C   UNL     1      -0.580   3.778  -1.041  1.00  0.00     0.006 A 
ATOM      9  C   UNL     1       0.536   4.818  -3.377  1.00  0.00     0.021 A 
ATOM     10  C   UNL     1      -0.493   5.159  -1.217  1.00  0.00     0.021 A 
ATOM     11  C   UNL     1       0.065   5.679  -2.385  1.00  0.00     0.041 A 
ATOM     12  Cl  UNL     1       0.173   7.383  -2.602  1.00  0.00    -0.084 Cl
ENDBRANCH   1   6
BRANCH   1  13
ATOM     13  C   UNL     1      -1.478   0.834  -2.480  1.00  0.00    -0.036 A 
ATOM     14  C   UNL     1      -1.320  -0.100  -3.466  1.00  0.00     0.006 A 
ATOM     15  C   UNL     1      -2.690   1.267  -2.019  1.00  0.00     0.006 A 
ATOM     16  C   UNL     1      -2.468  -0.644  -4.039  1.00  0.00     0.021 A 
ATOM     17  C   UNL     1      -3.839   0.723  -2.593  1.00  0.00     0.021 A 
ATOM     18  C   UNL     1      -3.728  -0.234  -3.602  1.00  0.00     0.041 A 
ATOM     19  Cl  UNL     1      -5.146  -0.906  -4.310  1.00  0.00    -0.084 Cl
ENDBRANCH   1  13
TORSDOF 3
ENDMDL
MODEL 3
REMARK VINA RESULT:    -5.941      2.278      4.682
REMARK INTER + INTRA:          -7.598
REMARK INTER:                  -7.043
REMARK INTRA:                  -0.555
REMARK UNBOUND:                -0.616
REMARK SMILES Clc1ccc(C(c2ccc(Cl)cc2)C(Cl)(Cl)Cl)cc1
REMARK SMILES IDX 6 1 14 2 15 3 16 4 17 5 5 6 4 7 18 8 3 9 19 10 2 11 1 12
REMARK SMILES IDX 7 13 8 14 13 15 9 16 12 17 10 18 11 19
REMARK H PARENT
REMARK Flexibility Score: inf
ROOT
ATOM      1  C   UNL     1      -0.142   1.552  -1.905  1.00  0.00     0.101 C 
ENDROOT
BRANCH   1   2
ATOM      2  C   UNL     1       0.292   1.014  -0.478  1.00  0.00     0.201 C 
ATOM      3  Cl  UNL     1       1.987   1.390  -0.031  1.00  0.00    -0.083 Cl
ATOM      4  Cl  UNL     1       0.147  -0.794  -0.448  1.00  0.00    -0.083 Cl
ATOM      5  Cl  UNL     1      -0.787   1.619   0.837  1.00  0.00    -0.083 Cl
ENDBRANCH   1   2
BRANCH   1   6
ATOM      6  C   UNL     1      -0.066   3.030  -2.089  1.00  0.00    -0.036 A 
ATOM      7  C   UNL     1      -0.531   3.881  -1.087  1.00  0.00     0.006 A 
ATOM      8  C   UNL     1       0.469   3.561  -3.263  1.00  0.00     0.006 A 
ATOM      9  C   UNL     1      -0.462   5.264  -1.259  1.00  0.00     0.021 A 
ATOM     10  C   UNL     1       0.539   4.943  -3.435  1.00  0.00     0.021 A 
ATOM     11  C   UNL     1       0.074   5.795  -2.433  1.00  0.00     0.041 A 
ATOM     12  Cl  UNL     1       0.159   7.501  -2.646  1.00  0.00    -0.084 Cl
ENDBRANCH   1   6
BRANCH   1  13
ATOM     13  C   UNL     1      -1.430   0.938  -2.509  1.00  0.00    -0.036 A 
ATOM     14  C   UNL     1      -2.632   1.340  -1.997  1.00  0.00     0.006 A 
ATOM     15  C   UNL     1      -1.291   0.028  -3.520  1.00  0.00     0.006 A 
ATOM     16  C   UNL     1      -3.790   0.786  -2.540  1.00  0.00     0.021 A 
ATOM     17  C   UNL     1      -2.451  -0.527  -4.062  1.00  0.00     0.021 A 
ATOM     18  C   UNL     1      -3.700  -0.147  -3.573  1.00  0.00     0.041 A 
ATOM     19  Cl  UNL     1      -5.131  -0.832  -4.243  1.00  0.00    -0.084 Cl
ENDBRANCH   1  13
TORSDOF 3
ENDMDL
MODEL 4
REMARK VINA RESULT:    -5.863      2.381      5.924
REMARK INTER + INTRA:          -7.507
REMARK INTER:                  -7.046
REMARK INTRA:                  -0.461
REMARK UNBOUND:                -0.616
REMARK SMILES Clc1ccc(C(c2ccc(Cl)cc2)C(Cl)(Cl)Cl)cc1
REMARK SMILES IDX 6 1 14 2 15 3 16 4 17 5 5 6 4 7 18 8 3 9 19 10 2 11 1 12
REMARK SMILES IDX 7 13 8 14 13 15 9 16 12 17 10 18 11 19
REMARK H PARENT
REMARK Flexibility Score: inf
ROOT
ATOM      1  C   UNL     1      -2.951   1.577  -3.289  1.00  0.00     0.101 C 
ENDROOT
BRANCH   1   2
ATOM      2  C   UNL     1      -3.943   0.379  -3.601  1.00  0.00     0.201 C 
ATOM      3  Cl  UNL     1      -3.189  -0.997  -4.469  1.00  0.00    -0.083 Cl
ATOM      4  Cl  UNL     1      -5.289   0.975  -4.662  1.00  0.00    -0.083 Cl
ATOM      5  Cl  UNL     1      -4.734  -0.259  -2.109  1.00  0.00    -0.083 Cl
ENDBRANCH   1   2
BRANCH   1   6
ATOM      6  C   UNL     1      -1.927   1.310  -2.238  1.00  0.00    -0.036 A 
ATOM      7  C   UNL     1      -1.701   2.248  -1.232  1.00  0.00     0.006 A 
ATOM      8  C   UNL     1      -1.194   0.123  -2.263  1.00  0.00     0.006 A 
ATOM      9  C   UNL     1      -0.742   2.000  -0.249  1.00  0.00     0.021 A 
ATOM     10  C   UNL     1      -0.236  -0.126  -1.281  1.00  0.00     0.021 A 
ATOM     11  C   UNL     1      -0.010   0.813  -0.274  1.00  0.00     0.041 A 
ATOM     12  Cl  UNL     1       1.174   0.506   0.938  1.00  0.00    -0.084 Cl
ENDBRANCH   1   6
BRANCH   1  13
ATOM     13  C   UNL     1      -3.590   2.983  -3.161  1.00  0.00    -0.036 A 
ATOM     14  C   UNL     1      -4.492   3.187  -2.155  1.00  0.00     0.006 A 
ATOM     15  C   UNL     1      -3.216   3.939  -4.063  1.00  0.00     0.006 A 
ATOM     16  C   UNL     1      -5.068   4.452  -2.041  1.00  0.00     0.021 A 
ATOM     17  C   UNL     1      -3.792   5.205  -3.950  1.00  0.00     0.021 A 
ATOM     18  C   UNL     1      -4.718   5.461  -2.938  1.00  0.00     0.041 A 
ATOM     19  Cl  UNL     1      -5.428   7.022  -2.798  1.00  0.00    -0.084 Cl
ENDBRANCH   1  13
TORSDOF 3
ENDMDL
MODEL 5
REMARK VINA RESULT:    -5.852      2.619      4.083
REMARK INTER + INTRA:          -7.493
REMARK INTER:                  -7.098
REMARK INTRA:                  -0.396
REMARK UNBOUND:                -0.616
REMARK SMILES Clc1ccc(C(c2ccc(Cl)cc2)C(Cl)(Cl)Cl)cc1
REMARK SMILES IDX 6 1 14 2 15 3 16 4 17 5 5 6 4 7 18 8 3 9 19 10 2 11 1 12
REMARK SMILES IDX 7 13 8 14 13 15 9 16 12 17 10 18 11 19
REMARK H PARENT
REMARK Flexibility Score: inf
ROOT
ATOM      1  C   UNL     1      -4.506   4.036  -1.641  1.00  0.00     0.101 C 
ENDROOT
BRANCH   1   2
ATOM      2  C   UNL     1      -5.462   3.181  -2.573  1.00  0.00     0.201 C 
ATOM      3  Cl  UNL     1      -7.211   3.433  -2.267  1.00  0.00    -0.083 Cl
ATOM      4  Cl  UNL     1      -5.147   1.415  -2.298  1.00  0.00    -0.083 Cl
ATOM      5  Cl  UNL     1      -5.147   3.473  -4.326  1.00  0.00    -0.083 Cl
ENDBRANCH   1   2
BRANCH   1   6
ATOM      6  C   UNL     1      -4.407   5.487  -1.975  1.00  0.00    -0.036 A 
ATOM      7  C   UNL     1      -3.253   6.199  -1.651  1.00  0.00     0.006 A 
ATOM      8  C   UNL     1      -5.470   6.131  -2.609  1.00  0.00     0.006 A 
ATOM      9  C   UNL     1      -3.160   7.556  -1.962  1.00  0.00     0.021 A 
ATOM     10  C   UNL     1      -5.377   7.487  -2.921  1.00  0.00     0.021 A 
ATOM     11  C   UNL     1      -4.223   8.199  -2.597  1.00  0.00     0.041 A 
ATOM     12  Cl  UNL     1      -4.109   9.874  -2.981  1.00  0.00    -0.084 Cl
ENDBRANCH   1   6
BRANCH   1  13
ATOM     13  C   UNL     1      -3.133   3.405  -1.299  1.00  0.00    -0.036 A 
ATOM     14  C   UNL     1      -2.221   3.273  -2.308  1.00  0.00     0.006 A 
ATOM     15  C   UNL     1      -2.914   3.013  -0.008  1.00  0.00     0.006 A 
ATOM     16  C   UNL     1      -0.986   2.703  -2.000  1.00  0.00     0.021 A 
ATOM     17  C   UNL     1      -1.678   2.442   0.300  1.00  0.00     0.021 A 
ATOM     18  C   UNL     1      -0.714   2.288  -0.696  1.00  0.00     0.041 A 
ATOM     19  Cl  UNL     1       0.810   1.583  -0.316  1.00  0.00    -0.084 Cl
ENDBRANCH   1  13
TORSDOF 3
ENDMDL
