MODEL 1
REMARK VINA RESULT:    -6.528      0.000      0.000
REMARK INTER + INTRA:         -12.367
REMARK INTER:                  -9.199
REMARK INTRA:                  -3.167
REMARK UNBOUND:                -3.167
REMARK SMILES CC1(C)[C@H](C=C(Cl)Cl)[C@H]1C(=O)OCc1cccc(Oc2ccccc2)c1
REMARK SMILES IDX 13 1 12 2 10 3 11 4 9 5 4 6 2 7 1 8 3 9 5 10 7 11 6 12 8 13
REMARK SMILES IDX 14 14 26 15 15 16 18 17 16 18 17 19 19 20 20 21 21 22 25 23
REMARK SMILES IDX 22 24 24 25 23 26
REMARK H PARENT
REMARK Flexibility Score: inf
ROOT
ATOM      1  C   UNL     1      -0.397   6.903  -3.269  1.00  0.00     0.268 C 
ENDROOT
BRANCH   1   2
ATOM      2  O   UNL     1      -0.195   5.523  -2.990  1.00  0.00    -0.461 OA
BRANCH   2   3
ATOM      3  C   UNL     1       0.085   5.215  -1.690  1.00  0.00     0.310 C 
ATOM      4  O   UNL     1       0.723   5.898  -0.901  1.00  0.00    -0.252 OA
BRANCH   3   5
ATOM      5  C   UNL     1      -0.486   3.903  -1.297  1.00  0.00     0.113 C 
ATOM      6  C   UNL     1      -1.652   3.376  -2.073  1.00  0.00     0.035 C 
ATOM      7  C   UNL     1      -1.836   3.835  -0.656  1.00  0.00    -0.014 C 
ATOM      8  C   UNL     1      -2.109   2.791   0.374  1.00  0.00     0.012 C 
ATOM      9  C   UNL     1      -2.523   5.130  -0.380  1.00  0.00     0.012 C 
BRANCH   6  10
ATOM     10  C   UNL     1      -1.679   1.957  -2.397  1.00  0.00     0.011 C 
ATOM     11  Cl  UNL     1       0.228   2.122  -4.293  1.00  0.00    -0.071 Cl
ATOM     12  C   UNL     1      -0.938   1.311  -3.311  1.00  0.00     0.103 C 
ATOM     13  Cl  UNL     1      -1.127  -0.392  -3.546  1.00  0.00    -0.071 Cl
ENDBRANCH   6  10
ENDBRANCH   3   5
ENDBRANCH   2   3
ENDBRANCH   1   2
BRANCH   1  14
ATOM     14  C   UNL     1      -1.843   7.235  -3.113  1.00  0.00    -0.007 A 
ATOM     15  C   UNL     1      -2.812   6.420  -3.697  1.00  0.00     0.054 A 
ATOM     16  C   UNL     1      -2.224   8.359  -2.381  1.00  0.00     0.007 A 
ATOM     17  C   UNL     1      -4.164   6.731  -3.549  1.00  0.00     0.127 A 
ATOM     18  C   UNL     1      -3.576   8.670  -2.234  1.00  0.00     0.004 A 
ATOM     19  C   UNL     1      -4.545   7.855  -2.818  1.00  0.00     0.047 A 
BRANCH  17  20
ATOM     20  O   UNL     1      -5.111   5.936  -4.119  1.00  0.00    -0.457 OA
BRANCH  20  21
ATOM     21  C   UNL     1      -5.154   4.607  -3.734  1.00  0.00     0.127 A 
ATOM     22  C   UNL     1      -5.488   4.296  -2.427  1.00  0.00     0.047 A 
ATOM     23  C   UNL     1      -4.863   3.626  -4.663  1.00  0.00     0.047 A 
ATOM     24  C   UNL     1      -5.531   2.958  -2.039  1.00  0.00     0.004 A 
ATOM     25  C   UNL     1      -4.907   2.287  -4.273  1.00  0.00     0.004 A 
ATOM     26  C   UNL     1      -5.242   1.953  -2.961  1.00  0.00     0.000 A 
ENDBRANCH  20  21
ENDBRANCH  17  20
ENDBRANCH   1  14
TORSDOF 7
ENDMDL
MODEL 2
REMARK VINA RESULT:    -6.382      3.412      5.380
REMARK INTER + INTRA:         -12.160
REMARK INTER:                 -10.003
REMARK INTRA:                  -2.158
REMARK UNBOUND:                -3.167
REMARK SMILES CC1(C)[C@H](C=C(Cl)Cl)[C@H]1C(=O)OCc1cccc(Oc2ccccc2)c1
REMARK SMILES IDX 13 1 12 2 10 3 11 4 9 5 4 6 2 7 1 8 3 9 5 10 7 11 6 12 8 13
REMARK SMILES IDX 14 14 26 15 15 16 18 17 16 18 17 19 19 20 20 21 21 22 25 23
REMARK SMILES IDX 22 24 24 25 23 26
REMARK H PARENT
REMARK Flexibility Score: inf
ROOT
ATOM      1  C   UNL     1      -2.821   3.760   0.077  1.00  0.00     0.268 C 
ENDROOT
BRANCH   1   2
ATOM      2  O   UNL     1      -2.366   5.085  -0.167  1.00  0.00    -0.461 OA
BRANCH   2   3
ATOM      3  C   UNL     1      -1.224   5.195  -0.905  1.00  0.00     0.310 C 
ATOM      4  O   UNL     1      -0.231   4.485  -0.822  1.00  0.00    -0.252 OA
BRANCH   3   5
ATOM      5  C   UNL     1      -1.299   6.315  -1.876  1.00  0.00     0.113 C 
ATOM      6  C   UNL     1      -2.626   6.636  -2.488  1.00  0.00     0.035 C 
ATOM      7  C   UNL     1      -1.536   6.036  -3.326  1.00  0.00    -0.014 C 
ATOM      8  C   UNL     1      -0.902   6.909  -4.356  1.00  0.00     0.012 C 
ATOM      9  C   UNL     1      -1.619   4.604  -3.738  1.00  0.00     0.012 C 
BRANCH   6  10
ATOM     10  C   UNL     1      -2.992   8.036  -2.647  1.00  0.00     0.011 C 
ATOM     11  Cl  UNL     1      -5.640   7.563  -2.787  1.00  0.00    -0.071 Cl
ATOM     12  C   UNL     1      -4.224   8.550  -2.782  1.00  0.00     0.103 C 
ATOM     13  Cl  UNL     1      -4.445  10.256  -2.962  1.00  0.00    -0.071 Cl
ENDBRANCH   6  10
ENDBRANCH   3   5
ENDBRANCH   2   3
ENDBRANCH   1   2
BRANCH   1  14
ATOM     14  C   UNL     1      -3.784   3.361  -0.990  1.00  0.00    -0.007 A 
ATOM     15  C   UNL     1      -4.898   4.158  -1.256  1.00  0.00     0.054 A 
ATOM     16  C   UNL     1      -3.569   2.194  -1.723  1.00  0.00     0.007 A 
ATOM     17  C   UNL     1      -5.798   3.785  -2.255  1.00  0.00     0.127 A 
ATOM     18  C   UNL     1      -4.469   1.821  -2.720  1.00  0.00     0.004 A 
ATOM     19  C   UNL     1      -5.583   2.617  -2.986  1.00  0.00     0.047 A 
BRANCH  17  20
ATOM     20  O   UNL     1      -6.885   4.561  -2.515  1.00  0.00    -0.457 OA
BRANCH  20  21
ATOM     21  C   UNL     1      -7.894   4.595  -1.568  1.00  0.00     0.127 A 
ATOM     22  C   UNL     1      -8.194   5.795  -0.946  1.00  0.00     0.047 A 
ATOM     23  C   UNL     1      -8.576   3.431  -1.267  1.00  0.00     0.047 A 
ATOM     24  C   UNL     1      -9.210   5.829   0.008  1.00  0.00     0.004 A 
ATOM     25  C   UNL     1      -9.594   3.466  -0.313  1.00  0.00     0.004 A 
ATOM     26  C   UNL     1      -9.910   4.666   0.325  1.00  0.00     0.000 A 
ENDBRANCH  20  21
ENDBRANCH  17  20
ENDBRANCH   1  14
TORSDOF 7
ENDMDL
MODEL 3
REMARK VINA RESULT:    -6.193      2.382      4.686
REMARK INTER + INTRA:         -11.895
REMARK INTER:                  -9.818
REMARK INTRA:                  -2.077
REMARK UNBOUND:                -3.167
REMARK SMILES CC1(C)[C@H](C=C(Cl)Cl)[C@H]1C(=O)OCc1cccc(Oc2ccccc2)c1
REMARK SMILES IDX 13 1 12 2 10 3 11 4 9 5 4 6 2 7 1 8 3 9 5 10 7 11 6 12 8 13
REMARK SMILES IDX 14 14 26 15 15 16 18 17 16 18 17 19 19 20 20 21 21 22 25 23
REMARK SMILES IDX 22 24 24 25 23 26
REMARK H PARENT
REMARK Flexibility Score: inf
ROOT
ATOM      1  C   UNL     1      -4.787   1.688  -3.712  1.00  0.00     0.268 C 
ENDROOT
BRANCH   1   2
ATOM      2  O   UNL     1      -3.371   1.743  -3.840  1.00  0.00    -0.461 OA
BRANCH   2   3
ATOM      3  C   UNL     1      -2.661   1.142  -2.843  1.00  0.00     0.310 C 
ATOM      4  O   UNL     1      -2.820   0.007  -2.417  1.00  0.00    -0.252 OA
BRANCH   3   5
ATOM      5  C   UNL     1      -1.616   2.040  -2.289  1.00  0.00     0.113 C 
ATOM      6  C   UNL     1      -0.941   1.642  -1.015  1.00  0.00     0.035 C 
ATOM      7  C   UNL     1      -1.879   2.813  -1.036  1.00  0.00    -0.014 C 
ATOM      8  C   UNL     1      -1.285   4.172  -0.873  1.00  0.00     0.012 C 
ATOM      9  C   UNL     1      -3.237   2.687  -0.432  1.00  0.00     0.012 C 
BRANCH   6  10
ATOM     10  C   UNL     1       0.495   1.851  -0.901  1.00  0.00     0.011 C 
ATOM     11  Cl  UNL     1       0.873  -0.142   0.872  1.00  0.00    -0.071 Cl
ATOM     12  C   UNL     1       1.365   1.166  -0.142  1.00  0.00     0.103 C 
ATOM     13  Cl  UNL     1       3.044   1.577  -0.148  1.00  0.00    -0.071 Cl
ENDBRANCH   6  10
ENDBRANCH   3   5
ENDBRANCH   2   3
ENDBRANCH   1   2
BRANCH   1  14
ATOM     14  C   UNL     1      -5.301   3.026  -3.305  1.00  0.00    -0.007 A 
ATOM     15  C   UNL     1      -4.720   4.184  -3.822  1.00  0.00     0.054 A 
ATOM     16  C   UNL     1      -6.365   3.121  -2.407  1.00  0.00     0.007 A 
ATOM     17  C   UNL     1      -5.202   5.436  -3.441  1.00  0.00     0.127 A 
ATOM     18  C   UNL     1      -6.846   4.373  -2.026  1.00  0.00     0.004 A 
ATOM     19  C   UNL     1      -6.265   5.530  -2.543  1.00  0.00     0.047 A 
BRANCH  17  20
ATOM     20  O   UNL     1      -4.635   6.566  -3.945  1.00  0.00    -0.457 OA
BRANCH  20  21
ATOM     21  C   UNL     1      -3.406   6.952  -3.439  1.00  0.00     0.127 A 
ATOM     22  C   UNL     1      -2.278   6.814  -4.229  1.00  0.00     0.047 A 
ATOM     23  C   UNL     1      -3.335   7.464  -2.157  1.00  0.00     0.047 A 
ATOM     24  C   UNL     1      -1.040   7.202  -3.719  1.00  0.00     0.004 A 
ATOM     25  C   UNL     1      -2.096   7.853  -1.647  1.00  0.00     0.004 A 
ATOM     26  C   UNL     1      -0.949   7.722  -2.429  1.00  0.00     0.000 A 
ENDBRANCH  20  21
ENDBRANCH  17  20
ENDBRANCH   1  14
TORSDOF 7
ENDMDL
MODEL 4
REMARK VINA RESULT:    -6.169      2.597      5.114
REMARK INTER + INTRA:         -11.860
REMARK INTER:                  -9.824
REMARK INTRA:                  -2.037
REMARK UNBOUND:                -3.167
REMARK SMILES CC1(C)[C@H](C=C(Cl)Cl)[C@H]1C(=O)OCc1cccc(Oc2ccccc2)c1
REMARK SMILES IDX 13 1 12 2 10 3 11 4 9 5 4 6 2 7 1 8 3 9 5 10 7 11 6 12 8 13
REMARK SMILES IDX 14 14 26 15 15 16 18 17 16 18 17 19 19 20 20 21 21 22 25 23
REMARK SMILES IDX 22 24 24 25 23 26
REMARK H PARENT
REMARK Flexibility Score: inf
ROOT
ATOM      1  C   UNL     1       0.982   3.339  -1.546  1.00  0.00     0.268 C 
ENDROOT
BRANCH   1   2
ATOM      2  O   UNL     1       0.175   4.353  -2.131  1.00  0.00    -0.461 OA
BRANCH   2   3
ATOM      3  C   UNL     1       0.058   5.507  -1.412  1.00  0.00     0.310 C 
ATOM      4  O   UNL     1       0.955   6.090  -0.820  1.00  0.00    -0.252 OA
BRANCH   3   5
ATOM      5  C   UNL     1      -1.334   6.023  -1.416  1.00  0.00     0.113 C 
ATOM      6  C   UNL     1      -2.193   5.737  -2.606  1.00  0.00     0.035 C 
ATOM      7  C   UNL     1      -1.719   7.135  -2.339  1.00  0.00    -0.014 C 
ATOM      8  C   UNL     1      -2.737   8.134  -1.902  1.00  0.00     0.012 C 
ATOM      9  C   UNL     1      -0.637   7.725  -3.180  1.00  0.00     0.012 C 
BRANCH   6  10
ATOM     10  C   UNL     1      -3.585   5.375  -2.381  1.00  0.00     0.011 C 
ATOM     11  Cl  UNL     1      -3.019   2.999  -1.245  1.00  0.00    -0.071 Cl
ATOM     12  C   UNL     1      -4.059   4.253  -1.818  1.00  0.00     0.103 C 
ATOM     13  Cl  UNL     1      -5.762   4.013  -1.645  1.00  0.00    -0.071 Cl
ENDBRANCH   6  10
ENDBRANCH   3   5
ENDBRANCH   2   3
ENDBRANCH   1   2
BRANCH   1  14
ATOM     14  C   UNL     1       0.339   2.010  -1.756  1.00  0.00    -0.007 A 
ATOM     15  C   UNL     1      -0.283   1.720  -2.971  1.00  0.00     0.054 A 
ATOM     16  C   UNL     1       0.360   1.056  -0.739  1.00  0.00     0.007 A 
ATOM     17  C   UNL     1      -0.884   0.477  -3.167  1.00  0.00     0.127 A 
ATOM     18  C   UNL     1      -0.241  -0.187  -0.935  1.00  0.00     0.004 A 
ATOM     19  C   UNL     1      -0.863  -0.476  -2.150  1.00  0.00     0.047 A 
BRANCH  17  20
ATOM     20  O   UNL     1      -1.491   0.194  -4.353  1.00  0.00    -0.457 OA
BRANCH  20  21
ATOM     21  C   UNL     1      -2.871   0.279  -4.406  1.00  0.00     0.127 A 
ATOM     22  C   UNL     1      -3.468   1.527  -4.456  1.00  0.00     0.047 A 
ATOM     23  C   UNL     1      -3.619  -0.883  -4.407  1.00  0.00     0.047 A 
ATOM     24  C   UNL     1      -4.858   1.613  -4.510  1.00  0.00     0.004 A 
ATOM     25  C   UNL     1      -5.011  -0.797  -4.461  1.00  0.00     0.004 A 
ATOM     26  C   UNL     1      -5.630   0.452  -4.513  1.00  0.00     0.000 A 
ENDBRANCH  20  21
ENDBRANCH  17  20
ENDBRANCH   1  14
TORSDOF 7
ENDMDL
MODEL 5
REMARK VINA RESULT:    -6.157      1.927      2.390
REMARK INTER + INTRA:         -11.843
REMARK INTER:                  -9.837
REMARK INTRA:                  -2.006
REMARK UNBOUND:                -3.167
REMARK SMILES CC1(C)[C@H](C=C(Cl)Cl)[C@H]1C(=O)OCc1cccc(Oc2ccccc2)c1
REMARK SMILES IDX 13 1 12 2 10 3 11 4 9 5 4 6 2 7 1 8 3 9 5 10 7 11 6 12 8 13
REMARK SMILES IDX 14 14 26 15 15 16 18 17 16 18 17 19 19 20 20 21 21 22 25 23
REMARK SMILES IDX 22 24 24 25 23 26
REMARK H PARENT
REMARK Flexibility Score: inf
ROOT
ATOM      1  C   UNL     1      -0.575   6.485  -1.917  1.00  0.00     0.268 C 
ENDROOT
BRANCH   1   2
ATOM      2  O   UNL     1      -0.687   5.411  -0.992  1.00  0.00    -0.461 OA
BRANCH   2   3
ATOM      3  C   UNL     1       0.073   4.311  -1.264  1.00  0.00     0.310 C 
ATOM      4  O   UNL     1       1.218   4.304  -1.694  1.00  0.00    -0.252 OA
BRANCH   3   5
ATOM      5  C   UNL     1      -0.655   3.050  -0.972  1.00  0.00     0.113 C 
ATOM      6  C   UNL     1      -0.092   1.768  -1.497  1.00  0.00     0.035 C 
ATOM      7  C   UNL     1      -1.362   2.323  -2.071  1.00  0.00    -0.014 C 
ATOM      8  C   UNL     1      -2.627   1.590  -1.772  1.00  0.00     0.012 C 
ATOM      9  C   UNL     1      -1.352   2.955  -3.422  1.00  0.00     0.012 C 
BRANCH   6  10
ATOM     10  C   UNL     1      -0.122   0.597  -0.633  1.00  0.00     0.011 C 
ATOM     11  Cl  UNL     1       2.200   1.171   0.607  1.00  0.00    -0.071 Cl
ATOM     12  C   UNL     1       0.782   0.237   0.291  1.00  0.00     0.103 C 
ATOM     13  Cl  UNL     1       0.559  -1.206   1.217  1.00  0.00    -0.071 Cl
ENDBRANCH   6  10
ENDBRANCH   3   5
ENDBRANCH   2   3
ENDBRANCH   1   2
BRANCH   1  14
ATOM     14  C   UNL     1      -1.934   7.010  -2.236  1.00  0.00    -0.007 A 
ATOM     15  C   UNL     1      -2.784   6.282  -3.069  1.00  0.00     0.054 A 
ATOM     16  C   UNL     1      -2.355   8.227  -1.700  1.00  0.00     0.007 A 
ATOM     17  C   UNL     1      -4.056   6.773  -3.366  1.00  0.00     0.127 A 
ATOM     18  C   UNL     1      -3.626   8.718  -1.998  1.00  0.00     0.004 A 
ATOM     19  C   UNL     1      -4.476   7.990  -2.831  1.00  0.00     0.047 A 
BRANCH  17  20
ATOM     20  O   UNL     1      -4.886   6.064  -4.179  1.00  0.00    -0.457 OA
BRANCH  20  21
ATOM     21  C   UNL     1      -5.180   4.760  -3.820  1.00  0.00     0.127 A 
ATOM     22  C   UNL     1      -4.802   3.728  -4.661  1.00  0.00     0.047 A 
ATOM     23  C   UNL     1      -5.843   4.521  -2.630  1.00  0.00     0.047 A 
ATOM     24  C   UNL     1      -5.098   2.415  -4.300  1.00  0.00     0.004 A 
ATOM     25  C   UNL     1      -6.138   3.206  -2.269  1.00  0.00     0.004 A 
ATOM     26  C   UNL     1      -5.765   2.153  -3.104  1.00  0.00     0.000 A 
ENDBRANCH  20  21
ENDBRANCH  17  20
ENDBRANCH   1  14
TORSDOF 7
ENDMDL
