MODEL 1
REMARK VINA RESULT:    -6.475      0.000      0.000
REMARK INTER + INTRA:         -12.266
REMARK INTER:                  -9.125
REMARK INTRA:                  -3.141
REMARK UNBOUND:                -3.141
REMARK SMILES CC1(C)[C@H](C=C(Cl)Cl)[C@H]1C(=O)OCc1cccc(Oc2ccccc2)c1
REMARK SMILES IDX 13 1 12 2 10 3 11 4 9 5 4 6 2 7 1 8 3 9 5 10 7 11 6 12 8 13
REMARK SMILES IDX 14 14 26 15 15 16 18 17 16 18 17 19 19 20 20 21 21 22 25 23
REMARK SMILES IDX 22 24 24 25 23 26
REMARK H PARENT
REMARK Flexibility Score: inf
ROOT
ATOM      1  C   UNL     1      -0.502   6.843  -3.279  1.00  0.00     0.268 C 
ENDROOT
BRANCH   1   2
ATOM      2  O   UNL     1      -0.332   5.458  -3.007  1.00  0.00    -0.461 OA
BRANCH   2   3
ATOM      3  C   UNL     1      -0.017   5.140  -1.718  1.00  0.00     0.310 C 
ATOM      4  O   UNL     1       0.649   5.812  -0.943  1.00  0.00    -0.252 OA
BRANCH   3   5
ATOM      5  C   UNL     1      -0.591   3.831  -1.315  1.00  0.00     0.113 C 
ATOM      6  C   UNL     1      -1.794   3.328  -2.048  1.00  0.00     0.035 C 
ATOM      7  C   UNL     1      -1.914   3.775  -0.621  1.00  0.00    -0.014 C 
ATOM      8  C   UNL     1      -2.159   2.723   0.409  1.00  0.00     0.012 C 
ATOM      9  C   UNL     1      -2.572   5.075  -0.303  1.00  0.00     0.012 C 
BRANCH   6  10
ATOM     10  C   UNL     1      -1.854   1.913  -2.386  1.00  0.00     0.011 C 
ATOM     11  Cl  UNL     1       0.086   2.044  -4.251  1.00  0.00    -0.071 Cl
ATOM     12  C   UNL     1      -1.116   1.256  -3.294  1.00  0.00     0.103 C 
ATOM     13  Cl  UNL     1      -1.347  -0.439  -3.547  1.00  0.00    -0.071 Cl
ENDBRANCH   6  10
ENDBRANCH   3   5
ENDBRANCH   2   3
ENDBRANCH   1   2
BRANCH   1  14
ATOM     14  C   UNL     1      -1.937   7.211  -3.103  1.00  0.00    -0.007 A 
ATOM     15  C   UNL     1      -2.934   6.418  -3.672  1.00  0.00     0.054 A 
ATOM     16  C   UNL     1      -2.281   8.346  -2.369  1.00  0.00     0.007 A 
ATOM     17  C   UNL     1      -4.276   6.762  -3.506  1.00  0.00     0.127 A 
ATOM     18  C   UNL     1      -3.622   8.690  -2.205  1.00  0.00     0.004 A 
ATOM     19  C   UNL     1      -4.620   7.897  -2.773  1.00  0.00     0.047 A 
BRANCH  17  20
ATOM     20  O   UNL     1      -5.250   5.989  -4.061  1.00  0.00    -0.457 OA
BRANCH  20  21
ATOM     21  C   UNL     1      -5.293   4.653  -3.704  1.00  0.00     0.127 A 
ATOM     22  C   UNL     1      -5.588   4.315  -2.394  1.00  0.00     0.047 A 
ATOM     23  C   UNL     1      -5.041   3.690  -4.663  1.00  0.00     0.047 A 
ATOM     24  C   UNL     1      -5.632   2.969  -2.034  1.00  0.00     0.004 A 
ATOM     25  C   UNL     1      -5.086   2.342  -4.302  1.00  0.00     0.004 A 
ATOM     26  C   UNL     1      -5.381   1.982  -2.987  1.00  0.00     0.000 A 
ENDBRANCH  20  21
ENDBRANCH  17  20
ENDBRANCH   1  14
TORSDOF 7
ENDMDL
MODEL 2
REMARK VINA RESULT:    -6.379      3.373      5.393
REMARK INTER + INTRA:         -12.131
REMARK INTER:                 -10.020
REMARK INTRA:                  -2.110
REMARK UNBOUND:                -3.141
REMARK SMILES CC1(C)[C@H](C=C(Cl)Cl)[C@H]1C(=O)OCc1cccc(Oc2ccccc2)c1
REMARK SMILES IDX 13 1 12 2 10 3 11 4 9 5 4 6 2 7 1 8 3 9 5 10 7 11 6 12 8 13
REMARK SMILES IDX 14 14 26 15 15 16 18 17 16 18 17 19 19 20 20 21 21 22 25 23
REMARK SMILES IDX 22 24 24 25 23 26
REMARK H PARENT
REMARK Flexibility Score: inf
ROOT
ATOM      1  C   UNL     1      -2.750   3.680   0.142  1.00  0.00     0.268 C 
ENDROOT
BRANCH   1   2
ATOM      2  O   UNL     1      -2.302   5.004  -0.121  1.00  0.00    -0.461 OA
BRANCH   2   3
ATOM      3  C   UNL     1      -1.203   5.111  -0.921  1.00  0.00     0.310 C 
ATOM      4  O   UNL     1      -0.215   4.389  -0.904  1.00  0.00    -0.252 OA
BRANCH   3   5
ATOM      5  C   UNL     1      -1.319   6.247  -1.871  1.00  0.00     0.113 C 
ATOM      6  C   UNL     1      -2.676   6.599  -2.392  1.00  0.00     0.035 C 
ATOM      7  C   UNL     1      -1.654   5.991  -3.307  1.00  0.00    -0.014 C 
ATOM      8  C   UNL     1      -1.071   6.868  -4.364  1.00  0.00     0.012 C 
ATOM      9  C   UNL     1      -1.790   4.568  -3.730  1.00  0.00     0.012 C 
BRANCH   6  10
ATOM     10  C   UNL     1      -3.025   8.008  -2.509  1.00  0.00     0.011 C 
ATOM     11  Cl  UNL     1      -5.664   7.561  -2.818  1.00  0.00    -0.071 Cl
ATOM     12  C   UNL     1      -4.245   8.537  -2.690  1.00  0.00     0.103 C 
ATOM     13  Cl  UNL     1      -4.446  10.250  -2.807  1.00  0.00    -0.071 Cl
ENDBRANCH   6  10
ENDBRANCH   3   5
ENDBRANCH   2   3
ENDBRANCH   1   2
BRANCH   1  14
ATOM     14  C   UNL     1      -3.744   3.277  -0.894  1.00  0.00    -0.007 A 
ATOM     15  C   UNL     1      -4.826   4.110  -1.183  1.00  0.00     0.054 A 
ATOM     16  C   UNL     1      -3.592   2.070  -1.576  1.00  0.00     0.007 A 
ATOM     17  C   UNL     1      -5.756   3.733  -2.152  1.00  0.00     0.127 A 
ATOM     18  C   UNL     1      -4.522   1.694  -2.544  1.00  0.00     0.004 A 
ATOM     19  C   UNL     1      -5.603   2.526  -2.832  1.00  0.00     0.047 A 
BRANCH  17  20
ATOM     20  O   UNL     1      -6.812   4.545  -2.434  1.00  0.00    -0.457 OA
BRANCH  20  21
ATOM     21  C   UNL     1      -7.851   4.590  -1.521  1.00  0.00     0.127 A 
ATOM     22  C   UNL     1      -8.545   3.428  -1.233  1.00  0.00     0.047 A 
ATOM     23  C   UNL     1      -8.170   5.794  -0.920  1.00  0.00     0.047 A 
ATOM     24  C   UNL     1      -9.593   3.473  -0.314  1.00  0.00     0.004 A 
ATOM     25  C   UNL     1      -9.218   5.838   0.000  1.00  0.00     0.004 A 
ATOM     26  C   UNL     1      -9.929   4.677   0.303  1.00  0.00     0.000 A 
ENDBRANCH  20  21
ENDBRANCH  17  20
ENDBRANCH   1  14
TORSDOF 7
ENDMDL
MODEL 3
REMARK VINA RESULT:    -6.144      2.592      5.154
REMARK INTER + INTRA:         -11.799
REMARK INTER:                  -9.860
REMARK INTRA:                  -1.939
REMARK UNBOUND:                -3.141
REMARK SMILES CC1(C)[C@H](C=C(Cl)Cl)[C@H]1C(=O)OCc1cccc(Oc2ccccc2)c1
REMARK SMILES IDX 13 1 12 2 10 3 11 4 9 5 4 6 2 7 1 8 3 9 5 10 7 11 6 12 8 13
REMARK SMILES IDX 14 14 26 15 15 16 18 17 16 18 17 19 19 20 20 21 21 22 25 23
REMARK SMILES IDX 22 24 24 25 23 26
REMARK H PARENT
REMARK Flexibility Score: inf
ROOT
ATOM      1  C   UNL     1       0.992   3.367  -1.654  1.00  0.00     0.268 C 
ENDROOT
BRANCH   1   2
ATOM      2  O   UNL     1       0.137   4.374  -2.183  1.00  0.00    -0.461 OA
BRANCH   2   3
ATOM      3  C   UNL     1       0.016   5.506  -1.431  1.00  0.00     0.310 C 
ATOM      4  O   UNL     1       0.916   6.093  -0.847  1.00  0.00    -0.252 OA
BRANCH   3   5
ATOM      5  C   UNL     1      -1.387   5.990  -1.382  1.00  0.00     0.113 C 
ATOM      6  C   UNL     1      -2.240   5.816  -2.599  1.00  0.00     0.035 C 
ATOM      7  C   UNL     1      -1.794   7.187  -2.180  1.00  0.00    -0.014 C 
ATOM      8  C   UNL     1      -2.834   8.111  -1.641  1.00  0.00     0.012 C 
ATOM      9  C   UNL     1      -0.725   7.887  -2.950  1.00  0.00     0.012 C 
BRANCH   6  10
ATOM     10  C   UNL     1      -3.624   5.403  -2.417  1.00  0.00     0.011 C 
ATOM     11  Cl  UNL     1      -3.007   3.059  -1.241  1.00  0.00    -0.071 Cl
ATOM     12  C   UNL     1      -4.073   4.268  -1.861  1.00  0.00     0.103 C 
ATOM     13  Cl  UNL     1      -5.772   3.965  -1.743  1.00  0.00    -0.071 Cl
ENDBRANCH   6  10
ENDBRANCH   3   5
ENDBRANCH   2   3
ENDBRANCH   1   2
BRANCH   1  14
ATOM     14  C   UNL     1       0.345   2.033  -1.814  1.00  0.00    -0.007 A 
ATOM     15  C   UNL     1      -0.267   1.696  -3.021  1.00  0.00     0.054 A 
ATOM     16  C   UNL     1       0.355   1.122  -0.758  1.00  0.00     0.007 A 
ATOM     17  C   UNL     1      -0.871   0.447  -3.171  1.00  0.00     0.127 A 
ATOM     18  C   UNL     1      -0.250  -0.125  -0.907  1.00  0.00     0.004 A 
ATOM     19  C   UNL     1      -0.862  -0.463  -2.114  1.00  0.00     0.047 A 
BRANCH  17  20
ATOM     20  O   UNL     1      -1.469   0.117  -4.348  1.00  0.00    -0.457 OA
BRANCH  20  21
ATOM     21  C   UNL     1      -2.846   0.239  -4.428  1.00  0.00     0.127 A 
ATOM     22  C   UNL     1      -3.622  -0.907  -4.457  1.00  0.00     0.047 A 
ATOM     23  C   UNL     1      -3.410   1.500  -4.477  1.00  0.00     0.047 A 
ATOM     24  C   UNL     1      -5.009  -0.785  -4.537  1.00  0.00     0.004 A 
ATOM     25  C   UNL     1      -4.798   1.621  -4.557  1.00  0.00     0.004 A 
ATOM     26  C   UNL     1      -5.597   0.478  -4.586  1.00  0.00     0.000 A 
ENDBRANCH  20  21
ENDBRANCH  17  20
ENDBRANCH   1  14
TORSDOF 7
ENDMDL
MODEL 4
REMARK VINA RESULT:    -6.112      2.719      5.275
REMARK INTER + INTRA:         -11.754
REMARK INTER:                  -8.424
REMARK INTRA:                  -3.330
REMARK UNBOUND:                -3.141
REMARK SMILES CC1(C)[C@H](C=C(Cl)Cl)[C@H]1C(=O)OCc1cccc(Oc2ccccc2)c1
REMARK SMILES IDX 13 1 12 2 10 3 11 4 9 5 4 6 2 7 1 8 3 9 5 10 7 11 6 12 8 13
REMARK SMILES IDX 14 14 26 15 15 16 18 17 16 18 17 19 19 20 20 21 21 22 25 23
REMARK SMILES IDX 22 24 24 25 23 26
REMARK H PARENT
REMARK Flexibility Score: inf
ROOT
ATOM      1  C   UNL     1      -0.381   1.595  -0.314  1.00  0.00     0.268 C 
ENDROOT
BRANCH   1   2
ATOM      2  O   UNL     1      -0.132   2.975  -0.549  1.00  0.00    -0.461 OA
BRANCH   2   3
ATOM      3  C   UNL     1       0.733   3.258  -1.565  1.00  0.00     0.310 C 
ATOM      4  O   UNL     1       1.720   2.610  -1.885  1.00  0.00    -0.252 OA
BRANCH   3   5
ATOM      5  C   UNL     1       0.348   4.495  -2.292  1.00  0.00     0.113 C 
ATOM      6  C   UNL     1      -1.108   4.775  -2.492  1.00  0.00     0.035 C 
ATOM      7  C   UNL     1      -0.244   4.405  -3.662  1.00  0.00    -0.014 C 
ATOM      8  C   UNL     1       0.051   5.472  -4.662  1.00  0.00     0.012 C 
ATOM      9  C   UNL     1      -0.357   3.045  -4.266  1.00  0.00     0.012 C 
BRANCH   6  10
ATOM     10  C   UNL     1      -1.576   6.143  -2.325  1.00  0.00     0.011 C 
ATOM     11  Cl  UNL     1      -2.653   5.717   0.108  1.00  0.00    -0.071 Cl
ATOM     12  C   UNL     1      -2.237   6.660  -1.278  1.00  0.00     0.103 C 
ATOM     13  Cl  UNL     1      -2.710   8.324  -1.277  1.00  0.00    -0.071 Cl
ENDBRANCH   6  10
ENDBRANCH   3   5
ENDBRANCH   2   3
ENDBRANCH   1   2
BRANCH   1  14
ATOM     14  C   UNL     1      -1.284   1.066  -1.376  1.00  0.00    -0.007 A 
ATOM     15  C   UNL     1      -2.544   1.634  -1.567  1.00  0.00     0.054 A 
ATOM     16  C   UNL     1      -0.869   0.004  -2.180  1.00  0.00     0.007 A 
ATOM     17  C   UNL     1      -3.388   1.139  -2.561  1.00  0.00     0.127 A 
ATOM     18  C   UNL     1      -1.713  -0.491  -3.173  1.00  0.00     0.004 A 
ATOM     19  C   UNL     1      -2.973   0.077  -3.363  1.00  0.00     0.047 A 
BRANCH  17  20
ATOM     20  O   UNL     1      -4.618   1.693  -2.747  1.00  0.00    -0.457 OA
BRANCH  20  21
ATOM     21  C   UNL     1      -4.675   3.028  -3.107  1.00  0.00     0.127 A 
ATOM     22  C   UNL     1      -4.096   3.430  -4.299  1.00  0.00     0.047 A 
ATOM     23  C   UNL     1      -5.307   3.927  -2.268  1.00  0.00     0.047 A 
ATOM     24  C   UNL     1      -4.154   4.775  -4.661  1.00  0.00     0.004 A 
ATOM     25  C   UNL     1      -5.365   5.273  -2.632  1.00  0.00     0.004 A 
ATOM     26  C   UNL     1      -4.788   5.696  -3.829  1.00  0.00     0.000 A 
ENDBRANCH  20  21
ENDBRANCH  17  20
ENDBRANCH   1  14
TORSDOF 7
ENDMDL
MODEL 5
REMARK VINA RESULT:    -6.085      2.695      5.946
REMARK INTER + INTRA:         -11.716
REMARK INTER:                  -8.633
REMARK INTRA:                  -3.084
REMARK UNBOUND:                -3.141
REMARK SMILES CC1(C)[C@H](C=C(Cl)Cl)[C@H]1C(=O)OCc1cccc(Oc2ccccc2)c1
REMARK SMILES IDX 13 1 12 2 10 3 11 4 9 5 4 6 2 7 1 8 3 9 5 10 7 11 6 12 8 13
REMARK SMILES IDX 14 14 26 15 15 16 18 17 16 18 17 19 19 20 20 21 21 22 25 23
REMARK SMILES IDX 22 24 24 25 23 26
REMARK H PARENT
REMARK Flexibility Score: inf
ROOT
ATOM      1  C   UNL     1      -5.161   2.989  -4.663  1.00  0.00     0.268 C 
ENDROOT
BRANCH   1   2
ATOM      2  O   UNL     1      -4.518   3.975  -3.865  1.00  0.00    -0.461 OA
BRANCH   2   3
ATOM      3  C   UNL     1      -5.033   4.155  -2.614  1.00  0.00     0.310 C 
ATOM      4  O   UNL     1      -6.169   3.888  -2.248  1.00  0.00    -0.252 OA
BRANCH   3   5
ATOM      5  C   UNL     1      -4.033   4.735  -1.682  1.00  0.00     0.113 C 
ATOM      6  C   UNL     1      -2.582   4.557  -2.000  1.00  0.00     0.035 C 
ATOM      7  C   UNL     1      -3.191   3.837  -0.833  1.00  0.00    -0.014 C 
ATOM      8  C   UNL     1      -2.790   4.281   0.534  1.00  0.00     0.012 C 
ATOM      9  C   UNL     1      -3.456   2.371  -0.922  1.00  0.00     0.012 C 
BRANCH   6  10
ATOM     10  C   UNL     1      -1.686   5.684  -1.784  1.00  0.00     0.011 C 
ATOM     11  Cl  UNL     1      -0.724   5.693  -4.301  1.00  0.00    -0.071 Cl
ATOM     12  C   UNL     1      -0.856   6.253  -2.672  1.00  0.00     0.103 C 
ATOM     13  Cl  UNL     1       0.135   7.592  -2.211  1.00  0.00    -0.071 Cl
ENDBRANCH   6  10
ENDBRANCH   3   5
ENDBRANCH   2   3
ENDBRANCH   1   2
BRANCH   1  14
ATOM     14  C   UNL     1      -4.451   1.687  -4.511  1.00  0.00    -0.007 A 
ATOM     15  C   UNL     1      -3.065   1.663  -4.352  1.00  0.00     0.054 A 
ATOM     16  C   UNL     1      -5.172   0.493  -4.528  1.00  0.00     0.007 A 
ATOM     17  C   UNL     1      -2.401   0.445  -4.210  1.00  0.00     0.127 A 
ATOM     18  C   UNL     1      -4.508  -0.725  -4.386  1.00  0.00     0.004 A 
ATOM     19  C   UNL     1      -3.122  -0.748  -4.227  1.00  0.00     0.047 A 
BRANCH  17  20
ATOM     20  O   UNL     1      -1.049   0.421  -4.054  1.00  0.00    -0.457 OA
BRANCH  20  21
ATOM     21  C   UNL     1      -0.526   0.942  -2.884  1.00  0.00     0.127 A 
ATOM     22  C   UNL     1      -0.617   0.202  -1.717  1.00  0.00     0.047 A 
ATOM     23  C   UNL     1       0.074   2.188  -2.908  1.00  0.00     0.047 A 
ATOM     24  C   UNL     1      -0.090   0.727  -0.538  1.00  0.00     0.004 A 
ATOM     25  C   UNL     1       0.601   2.712  -1.728  1.00  0.00     0.004 A 
ATOM     26  C   UNL     1       0.520   1.981  -0.543  1.00  0.00     0.000 A 
ENDBRANCH  20  21
ENDBRANCH  17  20
ENDBRANCH   1  14
TORSDOF 7
ENDMDL
