MODEL 1
REMARK VINA RESULT:    -6.507      0.000      0.000
REMARK INTER + INTRA:         -12.331
REMARK INTER:                  -9.170
REMARK INTRA:                  -3.161
REMARK UNBOUND:                -3.161
REMARK SMILES CC1(C)[C@H](C=C(Cl)Cl)[C@H]1C(=O)OCc1cccc(Oc2ccccc2)c1
REMARK SMILES IDX 13 1 12 2 10 3 11 4 9 5 4 6 2 7 1 8 3 9 5 10 7 11 6 12 8 13
REMARK SMILES IDX 14 14 26 15 15 16 18 17 16 18 17 19 19 20 20 21 21 22 25 23
REMARK SMILES IDX 22 24 24 25 23 26
REMARK H PARENT
REMARK Flexibility Score: inf
ROOT
ATOM      1  C   UNL     1      -0.555   6.800  -3.211  1.00  0.00     0.268 C 
ENDROOT
BRANCH   1   2
ATOM      2  O   UNL     1      -0.413   5.411  -2.945  1.00  0.00    -0.461 OA
BRANCH   2   3
ATOM      3  C   UNL     1      -0.079   5.083  -1.663  1.00  0.00     0.310 C 
ATOM      4  O   UNL     1       0.618   5.737  -0.901  1.00  0.00    -0.252 OA
BRANCH   3   5
ATOM      5  C   UNL     1      -0.674   3.786  -1.252  1.00  0.00     0.113 C 
ATOM      6  C   UNL     1      -1.885   3.298  -1.981  1.00  0.00     0.035 C 
ATOM      7  C   UNL     1      -1.998   3.756  -0.556  1.00  0.00    -0.014 C 
ATOM      8  C   UNL     1      -2.260   2.715   0.480  1.00  0.00     0.012 C 
ATOM      9  C   UNL     1      -2.634   5.069  -0.248  1.00  0.00     0.012 C 
BRANCH   6  10
ATOM     10  C   UNL     1      -1.968   1.882  -2.309  1.00  0.00     0.011 C 
ATOM     11  Cl  UNL     1      -0.250   2.029  -4.379  1.00  0.00    -0.071 Cl
ATOM     12  C   UNL     1      -1.330   1.230  -3.294  1.00  0.00     0.103 C 
ATOM     13  Cl  UNL     1      -1.570  -0.467  -3.519  1.00  0.00    -0.071 Cl
ENDBRANCH   6  10
ENDBRANCH   3   5
ENDBRANCH   2   3
ENDBRANCH   1   2
BRANCH   1  14
ATOM     14  C   UNL     1      -1.987   7.189  -3.066  1.00  0.00    -0.007 A 
ATOM     15  C   UNL     1      -2.986   6.399  -3.635  1.00  0.00     0.054 A 
ATOM     16  C   UNL     1      -2.328   8.343  -2.359  1.00  0.00     0.007 A 
ATOM     17  C   UNL     1      -4.325   6.763  -3.498  1.00  0.00     0.127 A 
ATOM     18  C   UNL     1      -3.667   8.707  -2.223  1.00  0.00     0.004 A 
ATOM     19  C   UNL     1      -4.666   7.917  -2.792  1.00  0.00     0.047 A 
BRANCH  17  20
ATOM     20  O   UNL     1      -5.300   5.993  -4.053  1.00  0.00    -0.457 OA
BRANCH  20  21
ATOM     21  C   UNL     1      -5.345   4.655  -3.698  1.00  0.00     0.127 A 
ATOM     22  C   UNL     1      -5.078   3.694  -4.658  1.00  0.00     0.047 A 
ATOM     23  C   UNL     1      -5.655   4.313  -2.396  1.00  0.00     0.047 A 
ATOM     24  C   UNL     1      -5.123   2.348  -4.301  1.00  0.00     0.004 A 
ATOM     25  C   UNL     1      -5.699   2.965  -2.039  1.00  0.00     0.004 A 
ATOM     26  C   UNL     1      -5.433   1.982  -2.992  1.00  0.00     0.000 A 
ENDBRANCH  20  21
ENDBRANCH  17  20
ENDBRANCH   1  14
TORSDOF 7
ENDMDL
MODEL 2
REMARK VINA RESULT:    -6.407      3.286      5.330
REMARK INTER + INTRA:         -12.190
REMARK INTER:                 -10.056
REMARK INTRA:                  -2.135
REMARK UNBOUND:                -3.161
REMARK SMILES CC1(C)[C@H](C=C(Cl)Cl)[C@H]1C(=O)OCc1cccc(Oc2ccccc2)c1
REMARK SMILES IDX 13 1 12 2 10 3 11 4 9 5 4 6 2 7 1 8 3 9 5 10 7 11 6 12 8 13
REMARK SMILES IDX 14 14 26 15 15 16 18 17 16 18 17 19 19 20 20 21 21 22 25 23
REMARK SMILES IDX 22 24 24 25 23 26
REMARK H PARENT
REMARK Flexibility Score: inf
ROOT
ATOM      1  C   UNL     1      -2.793   3.757   0.190  1.00  0.00     0.268 C 
ENDROOT
BRANCH   1   2
ATOM      2  O   UNL     1      -2.318   5.070  -0.078  1.00  0.00    -0.461 OA
BRANCH   2   3
ATOM      3  C   UNL     1      -1.204   5.150  -0.863  1.00  0.00     0.310 C 
ATOM      4  O   UNL     1      -0.230   4.412  -0.823  1.00  0.00    -0.252 OA
BRANCH   3   5
ATOM      5  C   UNL     1      -1.287   6.278  -1.825  1.00  0.00     0.113 C 
ATOM      6  C   UNL     1      -2.620   6.610  -2.416  1.00  0.00     0.035 C 
ATOM      7  C   UNL     1      -1.546   6.008  -3.274  1.00  0.00    -0.014 C 
ATOM      8  C   UNL     1      -0.922   6.885  -4.307  1.00  0.00     0.012 C 
ATOM      9  C   UNL     1      -1.645   4.580  -3.693  1.00  0.00     0.012 C 
BRANCH   6  10
ATOM     10  C   UNL     1      -2.979   8.014  -2.560  1.00  0.00     0.011 C 
ATOM     11  Cl  UNL     1      -5.618   7.544  -2.833  1.00  0.00    -0.071 Cl
ATOM     12  C   UNL     1      -4.204   8.531  -2.741  1.00  0.00     0.103 C 
ATOM     13  Cl  UNL     1      -4.418  10.240  -2.894  1.00  0.00    -0.071 Cl
ENDBRANCH   6  10
ENDBRANCH   3   5
ENDBRANCH   2   3
ENDBRANCH   1   2
BRANCH   1  14
ATOM     14  C   UNL     1      -3.732   3.338  -0.891  1.00  0.00    -0.007 A 
ATOM     15  C   UNL     1      -4.831   4.136  -1.207  1.00  0.00     0.054 A 
ATOM     16  C   UNL     1      -3.509   2.149  -1.586  1.00  0.00     0.007 A 
ATOM     17  C   UNL     1      -5.708   3.745  -2.218  1.00  0.00     0.127 A 
ATOM     18  C   UNL     1      -4.387   1.758  -2.596  1.00  0.00     0.004 A 
ATOM     19  C   UNL     1      -5.486   2.556  -2.912  1.00  0.00     0.047 A 
BRANCH  17  20
ATOM     20  O   UNL     1      -6.781   4.523  -2.527  1.00  0.00    -0.457 OA
BRANCH  20  21
ATOM     21  C   UNL     1      -7.811   4.596  -1.605  1.00  0.00     0.127 A 
ATOM     22  C   UNL     1      -8.108   5.816  -1.022  1.00  0.00     0.047 A 
ATOM     23  C   UNL     1      -8.517   3.450  -1.291  1.00  0.00     0.047 A 
ATOM     24  C   UNL     1      -9.145   5.889  -0.093  1.00  0.00     0.004 A 
ATOM     25  C   UNL     1      -9.556   3.524  -0.362  1.00  0.00     0.004 A 
ATOM     26  C   UNL     1      -9.870   4.744   0.236  1.00  0.00     0.000 A 
ENDBRANCH  20  21
ENDBRANCH  17  20
ENDBRANCH   1  14
TORSDOF 7
ENDMDL
MODEL 3
REMARK VINA RESULT:    -6.268      2.372      4.552
REMARK INTER + INTRA:         -11.994
REMARK INTER:                  -9.865
REMARK INTRA:                  -2.129
REMARK UNBOUND:                -3.161
REMARK SMILES CC1(C)[C@H](C=C(Cl)Cl)[C@H]1C(=O)OCc1cccc(Oc2ccccc2)c1
REMARK SMILES IDX 13 1 12 2 10 3 11 4 9 5 4 6 2 7 1 8 3 9 5 10 7 11 6 12 8 13
REMARK SMILES IDX 14 14 26 15 15 16 18 17 16 18 17 19 19 20 20 21 21 22 25 23
REMARK SMILES IDX 22 24 24 25 23 26
REMARK H PARENT
REMARK Flexibility Score: inf
ROOT
ATOM      1  C   UNL     1      -4.607   1.817  -3.952  1.00  0.00     0.268 C 
ENDROOT
BRANCH   1   2
ATOM      2  O   UNL     1      -3.196   1.880  -3.785  1.00  0.00    -0.461 OA
BRANCH   2   3
ATOM      3  C   UNL     1      -2.715   1.392  -2.605  1.00  0.00     0.310 C 
ATOM      4  O   UNL     1      -3.096   0.386  -2.023  1.00  0.00    -0.252 OA
BRANCH   3   5
ATOM      5  C   UNL     1      -1.624   2.239  -2.060  1.00  0.00     0.113 C 
ATOM      6  C   UNL     1      -1.107   1.935  -0.690  1.00  0.00     0.035 C 
ATOM      7  C   UNL     1      -1.901   3.185  -0.935  1.00  0.00    -0.014 C 
ATOM      8  C   UNL     1      -1.172   4.485  -0.871  1.00  0.00     0.012 C 
ATOM      9  C   UNL     1      -3.310   3.275  -0.453  1.00  0.00     0.012 C 
BRANCH   6  10
ATOM     10  C   UNL     1       0.329   2.007  -0.463  1.00  0.00     0.011 C 
ATOM     11  Cl  UNL     1       0.503  -0.440   0.651  1.00  0.00    -0.071 Cl
ATOM     12  C   UNL     1       1.118   1.074   0.092  1.00  0.00     0.103 C 
ATOM     13  Cl  UNL     1       2.814   1.358   0.274  1.00  0.00    -0.071 Cl
ENDBRANCH   6  10
ENDBRANCH   3   5
ENDBRANCH   2   3
ENDBRANCH   1   2
BRANCH   1  14
ATOM     14  C   UNL     1      -5.225   3.072  -3.435  1.00  0.00    -0.007 A 
ATOM     15  C   UNL     1      -4.744   4.311  -3.858  1.00  0.00     0.054 A 
ATOM     16  C   UNL     1      -6.285   3.006  -2.531  1.00  0.00     0.007 A 
ATOM     17  C   UNL     1      -5.323   5.484  -3.375  1.00  0.00     0.127 A 
ATOM     18  C   UNL     1      -6.863   4.180  -2.048  1.00  0.00     0.004 A 
ATOM     19  C   UNL     1      -6.382   5.419  -2.471  1.00  0.00     0.047 A 
BRANCH  17  20
ATOM     20  O   UNL     1      -4.853   6.694  -3.787  1.00  0.00    -0.457 OA
BRANCH  20  21
ATOM     21  C   UNL     1      -3.618   7.102  -3.312  1.00  0.00     0.127 A 
ATOM     22  C   UNL     1      -2.511   6.993  -4.136  1.00  0.00     0.047 A 
ATOM     23  C   UNL     1      -3.522   7.606  -2.029  1.00  0.00     0.047 A 
ATOM     24  C   UNL     1      -1.267   7.403  -3.658  1.00  0.00     0.004 A 
ATOM     25  C   UNL     1      -2.276   8.017  -1.552  1.00  0.00     0.004 A 
ATOM     26  C   UNL     1      -1.149   7.916  -2.367  1.00  0.00     0.000 A 
ENDBRANCH  20  21
ENDBRANCH  17  20
ENDBRANCH   1  14
TORSDOF 7
ENDMDL
MODEL 4
REMARK VINA RESULT:    -6.260      2.719      5.330
REMARK INTER + INTRA:         -11.983
REMARK INTER:                  -9.090
REMARK INTRA:                  -2.893
REMARK UNBOUND:                -3.161
REMARK SMILES CC1(C)[C@H](C=C(Cl)Cl)[C@H]1C(=O)OCc1cccc(Oc2ccccc2)c1
REMARK SMILES IDX 13 1 12 2 10 3 11 4 9 5 4 6 2 7 1 8 3 9 5 10 7 11 6 12 8 13
REMARK SMILES IDX 14 14 26 15 15 16 18 17 16 18 17 19 19 20 20 21 21 22 25 23
REMARK SMILES IDX 22 24 24 25 23 26
REMARK H PARENT
REMARK Flexibility Score: inf
ROOT
ATOM      1  C   UNL     1      -0.441   0.974  -1.209  1.00  0.00     0.268 C 
ENDROOT
BRANCH   1   2
ATOM      2  O   UNL     1      -0.460   2.385  -1.031  1.00  0.00    -0.461 OA
BRANCH   2   3
ATOM      3  C   UNL     1       0.663   3.049  -1.432  1.00  0.00     0.310 C 
ATOM      4  O   UNL     1       1.820   2.683  -1.280  1.00  0.00    -0.252 OA
BRANCH   3   5
ATOM      5  C   UNL     1       0.336   4.329  -2.111  1.00  0.00     0.113 C 
ATOM      6  C   UNL     1      -1.076   4.559  -2.548  1.00  0.00     0.035 C 
ATOM      7  C   UNL     1       0.002   4.340  -3.569  1.00  0.00    -0.014 C 
ATOM      8  C   UNL     1       0.403   5.508  -4.405  1.00  0.00     0.012 C 
ATOM      9  C   UNL     1       0.083   3.039  -4.295  1.00  0.00     0.012 C 
BRANCH   6  10
ATOM     10  C   UNL     1      -1.650   5.882  -2.355  1.00  0.00     0.011 C 
ATOM     11  Cl  UNL     1      -2.546   5.378   0.135  1.00  0.00    -0.071 Cl
ATOM     12  C   UNL     1      -2.293   6.346  -1.272  1.00  0.00     0.103 C 
ATOM     13  Cl  UNL     1      -2.907   7.962  -1.245  1.00  0.00    -0.071 Cl
ENDBRANCH   6  10
ENDBRANCH   3   5
ENDBRANCH   2   3
ENDBRANCH   1   2
BRANCH   1  14
ATOM     14  C   UNL     1      -1.586   0.568  -2.075  1.00  0.00    -0.007 A 
ATOM     15  C   UNL     1      -2.788   1.273  -2.017  1.00  0.00     0.054 A 
ATOM     16  C   UNL     1      -1.453  -0.516  -2.942  1.00  0.00     0.007 A 
ATOM     17  C   UNL     1      -3.858   0.893  -2.827  1.00  0.00     0.127 A 
ATOM     18  C   UNL     1      -2.524  -0.896  -3.751  1.00  0.00     0.004 A 
ATOM     19  C   UNL     1      -3.726  -0.191  -3.694  1.00  0.00     0.047 A 
BRANCH  17  20
ATOM     20  O   UNL     1      -5.032   1.581  -2.771  1.00  0.00    -0.457 OA
BRANCH  20  21
ATOM     21  C   UNL     1      -5.009   2.922  -3.110  1.00  0.00     0.127 A 
ATOM     22  C   UNL     1      -5.612   3.840  -2.268  1.00  0.00     0.047 A 
ATOM     23  C   UNL     1      -4.386   3.312  -4.281  1.00  0.00     0.047 A 
ATOM     24  C   UNL     1      -5.589   5.192  -2.609  1.00  0.00     0.004 A 
ATOM     25  C   UNL     1      -4.363   4.665  -4.622  1.00  0.00     0.004 A 
ATOM     26  C   UNL     1      -4.965   5.604  -3.786  1.00  0.00     0.000 A 
ENDBRANCH  20  21
ENDBRANCH  17  20
ENDBRANCH   1  14
TORSDOF 7
ENDMDL
MODEL 5
REMARK VINA RESULT:    -6.226      2.517      5.077
REMARK INTER + INTRA:         -11.934
REMARK INTER:                  -9.823
REMARK INTRA:                  -2.111
REMARK UNBOUND:                -3.161
REMARK SMILES CC1(C)[C@H](C=C(Cl)Cl)[C@H]1C(=O)OCc1cccc(Oc2ccccc2)c1
REMARK SMILES IDX 13 1 12 2 10 3 11 4 9 5 4 6 2 7 1 8 3 9 5 10 7 11 6 12 8 13
REMARK SMILES IDX 14 14 26 15 15 16 18 17 16 18 17 19 19 20 20 21 21 22 25 23
REMARK SMILES IDX 22 24 24 25 23 26
REMARK H PARENT
REMARK Flexibility Score: inf
ROOT
ATOM      1  C   UNL     1       1.187   3.665  -2.003  1.00  0.00     0.268 C 
ENDROOT
BRANCH   1   2
ATOM      2  O   UNL     1       0.283   4.680  -2.423  1.00  0.00    -0.461 OA
BRANCH   2   3
ATOM      3  C   UNL     1       0.110   5.718  -1.554  1.00  0.00     0.310 C 
ATOM      4  O   UNL     1       0.977   6.256  -0.879  1.00  0.00    -0.252 OA
BRANCH   3   5
ATOM      5  C   UNL     1      -1.306   6.162  -1.498  1.00  0.00     0.113 C 
ATOM      6  C   UNL     1      -2.171   5.923  -2.695  1.00  0.00     0.035 C 
ATOM      7  C   UNL     1      -1.761   7.319  -2.330  1.00  0.00    -0.014 C 
ATOM      8  C   UNL     1      -2.818   8.231  -1.804  1.00  0.00     0.012 C 
ATOM      9  C   UNL     1      -0.725   8.024  -3.140  1.00  0.00     0.012 C 
BRANCH   6  10
ATOM     10  C   UNL     1      -3.540   5.476  -2.477  1.00  0.00     0.011 C 
ATOM     11  Cl  UNL     1      -2.837   3.214  -1.194  1.00  0.00    -0.071 Cl
ATOM     12  C   UNL     1      -3.947   4.356  -1.860  1.00  0.00     0.103 C 
ATOM     13  Cl  UNL     1      -5.634   4.006  -1.707  1.00  0.00    -0.071 Cl
ENDBRANCH   6  10
ENDBRANCH   3   5
ENDBRANCH   2   3
ENDBRANCH   1   2
BRANCH   1  14
ATOM     14  C   UNL     1       0.491   2.347  -2.010  1.00  0.00    -0.007 A 
ATOM     15  C   UNL     1      -0.134   1.894  -3.173  1.00  0.00     0.054 A 
ATOM     16  C   UNL     1       0.465   1.565  -0.855  1.00  0.00     0.007 A 
ATOM     17  C   UNL     1      -0.784   0.661  -3.179  1.00  0.00     0.127 A 
ATOM     18  C   UNL     1      -0.186   0.332  -0.862  1.00  0.00     0.004 A 
ATOM     19  C   UNL     1      -0.811  -0.120  -2.024  1.00  0.00     0.047 A 
BRANCH  17  20
ATOM     20  O   UNL     1      -1.394   0.219  -4.314  1.00  0.00    -0.457 OA
BRANCH  20  21
ATOM     21  C   UNL     1      -2.776   0.259  -4.360  1.00  0.00     0.127 A 
ATOM     22  C   UNL     1      -3.415   1.487  -4.357  1.00  0.00     0.047 A 
ATOM     23  C   UNL     1      -3.485  -0.927  -4.407  1.00  0.00     0.047 A 
ATOM     24  C   UNL     1      -4.808   1.528  -4.403  1.00  0.00     0.004 A 
ATOM     25  C   UNL     1      -4.879  -0.886  -4.453  1.00  0.00     0.004 A 
ATOM     26  C   UNL     1      -5.540   0.342  -4.452  1.00  0.00     0.000 A 
ENDBRANCH  20  21
ENDBRANCH  17  20
ENDBRANCH   1  14
TORSDOF 7
ENDMDL
