MODEL 1
REMARK VINA RESULT:    -6.645      0.000      0.000
REMARK INTER + INTRA:          -8.288
REMARK INTER:                  -7.810
REMARK INTRA:                  -0.477
REMARK UNBOUND:                -0.477
REMARK SMILES Clc1ccc(C(c2ccc(Cl)cc2)C(Cl)(Cl)Cl)cc1
REMARK SMILES IDX 6 1 14 2 15 3 16 4 17 5 5 6 4 7 18 8 3 9 19 10 2 11 1 12
REMARK SMILES IDX 7 13 8 14 13 15 9 16 12 17 10 18 11 19
REMARK H PARENT
REMARK Flexibility Score: inf
ROOT
ATOM      1  C   UNL     1      -0.069   1.456  -1.611  1.00  0.00     0.101 C 
ENDROOT
BRANCH   1   2
ATOM      2  C   UNL     1       0.303   0.842  -0.197  1.00  0.00     0.201 C 
ATOM      3  Cl  UNL     1      -0.699   1.451   1.159  1.00  0.00    -0.083 Cl
ATOM      4  Cl  UNL     1       2.020   1.268   0.208  1.00  0.00    -0.083 Cl
ATOM      5  Cl  UNL     1       0.226  -0.960  -0.193  1.00  0.00    -0.083 Cl
ENDBRANCH   1   2
BRANCH   1   6
ATOM      6  C   UNL     1       0.004   2.943  -1.709  1.00  0.00    -0.036 A 
ATOM      7  C   UNL     1       0.898   3.540  -2.597  1.00  0.00     0.006 A 
ATOM      8  C   UNL     1      -0.821   3.736  -0.911  1.00  0.00     0.006 A 
ATOM      9  C   UNL     1       0.968   4.930  -2.688  1.00  0.00     0.021 A 
ATOM     10  C   UNL     1      -0.752   5.126  -1.002  1.00  0.00     0.021 A 
ATOM     11  C   UNL     1       0.142   5.723  -1.890  1.00  0.00     0.041 A 
ATOM     12  Cl  UNL     1       0.228   7.439  -2.002  1.00  0.00    -0.084 Cl
ENDBRANCH   1   6
BRANCH   1  13
ATOM     13  C   UNL     1      -1.325   0.871  -2.306  1.00  0.00    -0.036 A 
ATOM     14  C   UNL     1      -2.549   1.328  -1.906  1.00  0.00     0.006 A 
ATOM     15  C   UNL     1      -1.136  -0.070  -3.279  1.00  0.00     0.006 A 
ATOM     16  C   UNL     1      -3.678   0.799  -2.531  1.00  0.00     0.021 A 
ATOM     17  C   UNL     1      -2.265  -0.599  -3.903  1.00  0.00     0.021 A 
ATOM     18  C   UNL     1      -3.537  -0.164  -3.530  1.00  0.00     0.041 A 
ATOM     19  Cl  UNL     1      -4.931  -0.817  -4.300  1.00  0.00    -0.084 Cl
ENDBRANCH   1  13
TORSDOF 3
ENDMDL
MODEL 2
REMARK VINA RESULT:    -6.511      2.249      4.674
REMARK INTER + INTRA:          -8.129
REMARK INTER:                  -7.543
REMARK INTRA:                  -0.587
REMARK UNBOUND:                -0.477
REMARK SMILES Clc1ccc(C(c2ccc(Cl)cc2)C(Cl)(Cl)Cl)cc1
REMARK SMILES IDX 6 1 14 2 15 3 16 4 17 5 5 6 4 7 18 8 3 9 19 10 2 11 1 12
REMARK SMILES IDX 7 13 8 14 13 15 9 16 12 17 10 18 11 19
REMARK H PARENT
REMARK Flexibility Score: inf
ROOT
ATOM      1  C   UNL     1      -1.435   1.613  -1.469  1.00  0.00     0.101 C 
ENDROOT
BRANCH   1   2
ATOM      2  C   UNL     1      -1.783   0.631  -2.665  1.00  0.00     0.201 C 
ATOM      3  Cl  UNL     1      -3.539   0.379  -2.926  1.00  0.00    -0.083 Cl
ATOM      4  Cl  UNL     1      -1.079  -1.006  -2.321  1.00  0.00    -0.083 Cl
ATOM      5  Cl  UNL     1      -1.050   1.167  -4.225  1.00  0.00    -0.083 Cl
ENDBRANCH   1   2
BRANCH   1   6
ATOM      6  C   UNL     1      -1.979   2.997  -1.591  1.00  0.00    -0.036 A 
ATOM      7  C   UNL     1      -2.201   3.550  -2.852  1.00  0.00     0.006 A 
ATOM      8  C   UNL     1      -2.264   3.738  -0.444  1.00  0.00     0.006 A 
ATOM      9  C   UNL     1      -2.709   4.844  -2.966  1.00  0.00     0.021 A 
ATOM     10  C   UNL     1      -2.772   5.032  -0.558  1.00  0.00     0.021 A 
ATOM     11  C   UNL     1      -2.994   5.585  -1.819  1.00  0.00     0.041 A 
ATOM     12  Cl  UNL     1      -3.621   7.182  -1.959  1.00  0.00    -0.084 Cl
ENDBRANCH   1   6
BRANCH   1  13
ATOM     13  C   UNL     1       0.029   1.587  -0.962  1.00  0.00    -0.036 A 
ATOM     14  C   UNL     1       0.968   2.273  -1.680  1.00  0.00     0.006 A 
ATOM     15  C   UNL     1       0.298   0.879   0.176  1.00  0.00     0.006 A 
ATOM     16  C   UNL     1       2.285   2.247  -1.223  1.00  0.00     0.021 A 
ATOM     17  C   UNL     1       1.616   0.853   0.632  1.00  0.00     0.021 A 
ATOM     18  C   UNL     1       2.610   1.538  -0.067  1.00  0.00     0.041 A 
ATOM     19  Cl  UNL     1       4.236   1.506   0.496  1.00  0.00    -0.084 Cl
ENDBRANCH   1  13
TORSDOF 3
ENDMDL
MODEL 3
REMARK VINA RESULT:    -6.496      2.240      4.774
REMARK INTER + INTRA:          -8.112
REMARK INTER:                  -7.505
REMARK INTRA:                  -0.607
REMARK UNBOUND:                -0.477
REMARK SMILES Clc1ccc(C(c2ccc(Cl)cc2)C(Cl)(Cl)Cl)cc1
REMARK SMILES IDX 6 1 14 2 15 3 16 4 17 5 5 6 4 7 18 8 3 9 19 10 2 11 1 12
REMARK SMILES IDX 7 13 8 14 13 15 9 16 12 17 10 18 11 19
REMARK H PARENT
REMARK Flexibility Score: inf
ROOT
ATOM      1  C   UNL     1      -1.386   1.655  -1.514  1.00  0.00     0.101 C 
ENDROOT
BRANCH   1   2
ATOM      2  C   UNL     1      -1.732   0.688  -2.722  1.00  0.00     0.201 C 
ATOM      3  Cl  UNL     1      -1.055   1.206  -4.300  1.00  0.00    -0.083 Cl
ATOM      4  Cl  UNL     1      -3.532   0.620  -2.939  1.00  0.00    -0.083 Cl
ATOM      5  Cl  UNL     1      -1.206  -1.010  -2.411  1.00  0.00    -0.083 Cl
ENDBRANCH   1   2
BRANCH   1   6
ATOM      6  C   UNL     1      -1.908   3.047  -1.631  1.00  0.00    -0.036 A 
ATOM      7  C   UNL     1      -2.306   3.740  -0.488  1.00  0.00     0.006 A 
ATOM      8  C   UNL     1      -2.001   3.655  -2.883  1.00  0.00     0.006 A 
ATOM      9  C   UNL     1      -2.797   5.042  -0.597  1.00  0.00     0.021 A 
ATOM     10  C   UNL     1      -2.490   4.957  -2.992  1.00  0.00     0.021 A 
ATOM     11  C   UNL     1      -2.888   5.650  -1.850  1.00  0.00     0.041 A 
ATOM     12  Cl  UNL     1      -3.493   7.256  -1.984  1.00  0.00    -0.084 Cl
ENDBRANCH   1   6
BRANCH   1  13
ATOM     13  C   UNL     1       0.071   1.604  -0.988  1.00  0.00    -0.036 A 
ATOM     14  C   UNL     1       0.319   0.869   0.138  1.00  0.00     0.006 A 
ATOM     15  C   UNL     1       1.025   2.297  -1.679  1.00  0.00     0.006 A 
ATOM     16  C   UNL     1       1.630   0.825   0.611  1.00  0.00     0.021 A 
ATOM     17  C   UNL     1       2.336   2.253  -1.205  1.00  0.00     0.021 A 
ATOM     18  C   UNL     1       2.639   1.517  -0.060  1.00  0.00     0.041 A 
ATOM     19  Cl  UNL     1       4.257   1.462   0.525  1.00  0.00    -0.084 Cl
ENDBRANCH   1  13
TORSDOF 3
ENDMDL
MODEL 4
REMARK VINA RESULT:    -6.154      3.596      5.614
REMARK INTER + INTRA:          -7.710
REMARK INTER:                  -7.363
REMARK INTRA:                  -0.347
REMARK UNBOUND:                -0.477
REMARK SMILES Clc1ccc(C(c2ccc(Cl)cc2)C(Cl)(Cl)Cl)cc1
REMARK SMILES IDX 6 1 14 2 15 3 16 4 17 5 5 6 4 7 18 8 3 9 19 10 2 11 1 12
REMARK SMILES IDX 7 13 8 14 13 15 9 16 12 17 10 18 11 19
REMARK H PARENT
REMARK Flexibility Score: inf
ROOT
ATOM      1  C   UNL     1      -4.640   4.058  -1.649  1.00  0.00     0.101 C 
ENDROOT
BRANCH   1   2
ATOM      2  C   UNL     1      -5.506   3.207  -2.670  1.00  0.00     0.201 C 
ATOM      3  Cl  UNL     1      -5.221   3.612  -4.394  1.00  0.00    -0.083 Cl
ATOM      4  Cl  UNL     1      -7.268   3.510  -2.361  1.00  0.00    -0.083 Cl
ATOM      5  Cl  UNL     1      -5.263   1.432  -2.458  1.00  0.00    -0.083 Cl
ENDBRANCH   1   2
BRANCH   1   6
ATOM      6  C   UNL     1      -4.475   5.501  -1.987  1.00  0.00    -0.036 A 
ATOM      7  C   UNL     1      -3.288   6.160  -1.670  1.00  0.00     0.006 A 
ATOM      8  C   UNL     1      -5.509   6.192  -2.620  1.00  0.00     0.006 A 
ATOM      9  C   UNL     1      -3.134   7.510  -1.986  1.00  0.00     0.021 A 
ATOM     10  C   UNL     1      -5.355   7.541  -2.936  1.00  0.00     0.021 A 
ATOM     11  C   UNL     1      -4.168   8.200  -2.619  1.00  0.00     0.041 A 
ATOM     12  Cl  UNL     1      -3.978   9.866  -3.008  1.00  0.00    -0.084 Cl
ENDBRANCH   1   6
BRANCH   1  13
ATOM     13  C   UNL     1      -3.326   3.405  -1.151  1.00  0.00    -0.036 A 
ATOM     14  C   UNL     1      -3.216   3.125   0.182  1.00  0.00     0.006 A 
ATOM     15  C   UNL     1      -2.351   3.147  -2.073  1.00  0.00     0.006 A 
ATOM     16  C   UNL     1      -2.032   2.539   0.630  1.00  0.00     0.021 A 
ATOM     17  C   UNL     1      -1.167   2.561  -1.625  1.00  0.00     0.021 A 
ATOM     18  C   UNL     1      -1.008   2.256  -0.273  1.00  0.00     0.041 A 
ATOM     19  Cl  UNL     1       0.454   1.534   0.279  1.00  0.00    -0.084 Cl
ENDBRANCH   1  13
TORSDOF 3
ENDMDL
MODEL 5
REMARK VINA RESULT:    -6.153      3.754      6.711
REMARK INTER + INTRA:          -7.709
REMARK INTER:                  -7.246
REMARK INTRA:                  -0.463
REMARK UNBOUND:                -0.477
REMARK SMILES Clc1ccc(C(c2ccc(Cl)cc2)C(Cl)(Cl)Cl)cc1
REMARK SMILES IDX 6 1 14 2 15 3 16 4 17 5 5 6 4 7 18 8 3 9 19 10 2 11 1 12
REMARK SMILES IDX 7 13 8 14 13 15 9 16 12 17 10 18 11 19
REMARK H PARENT
REMARK Flexibility Score: inf
ROOT
ATOM      1  C   UNL     1      -4.178   4.265  -2.760  1.00  0.00     0.101 C 
ENDROOT
BRANCH   1   2
ATOM      2  C   UNL     1      -5.585   3.579  -3.016  1.00  0.00     0.201 C 
ATOM      3  Cl  UNL     1      -6.844   4.007  -1.814  1.00  0.00    -0.083 Cl
ATOM      4  Cl  UNL     1      -5.397   1.776  -2.937  1.00  0.00    -0.083 Cl
ATOM      5  Cl  UNL     1      -6.230   3.938  -4.663  1.00  0.00    -0.083 Cl
ENDBRANCH   1   2
BRANCH   1   6
ATOM      6  C   UNL     1      -3.311   3.600  -1.746  1.00  0.00    -0.036 A 
ATOM      7  C   UNL     1      -2.139   2.957  -2.144  1.00  0.00     0.006 A 
ATOM      8  C   UNL     1      -3.672   3.618  -0.398  1.00  0.00     0.006 A 
ATOM      9  C   UNL     1      -1.328   2.333  -1.196  1.00  0.00     0.021 A 
ATOM     10  C   UNL     1      -2.861   2.996   0.550  1.00  0.00     0.021 A 
ATOM     11  C   UNL     1      -1.690   2.353   0.152  1.00  0.00     0.041 A 
ATOM     12  Cl  UNL     1      -0.689   1.583   1.323  1.00  0.00    -0.084 Cl
ENDBRANCH   1   6
BRANCH   1  13
ATOM     13  C   UNL     1      -4.179   5.809  -2.628  1.00  0.00    -0.036 A 
ATOM     14  C   UNL     1      -3.056   6.409  -2.131  1.00  0.00     0.006 A 
ATOM     15  C   UNL     1      -5.304   6.483  -3.014  1.00  0.00     0.006 A 
ATOM     16  C   UNL     1      -3.059   7.799  -2.010  1.00  0.00     0.021 A 
ATOM     17  C   UNL     1      -5.306   7.872  -2.893  1.00  0.00     0.021 A 
ATOM     18  C   UNL     1      -4.183   8.531  -2.392  1.00  0.00     0.041 A 
ATOM     19  Cl  UNL     1      -4.186  10.245  -2.242  1.00  0.00    -0.084 Cl
ENDBRANCH   1  13
TORSDOF 3
ENDMDL
