MODEL 1
REMARK VINA RESULT:    -6.220      0.000      0.000
REMARK INTER + INTRA:          -7.920
REMARK INTER:                  -7.311
REMARK INTRA:                  -0.609
REMARK UNBOUND:                -0.609
REMARK SMILES Clc1ccc(C(c2ccc(Cl)cc2)C(Cl)(Cl)Cl)cc1
REMARK SMILES IDX 6 1 14 2 15 3 16 4 17 5 5 6 4 7 18 8 3 9 19 10 2 11 1 12
REMARK SMILES IDX 7 13 8 14 13 15 9 16 12 17 10 18 11 19
REMARK H PARENT
REMARK Flexibility Score: inf
ROOT
ATOM      1  C   UNL     1      -1.305   1.924  -1.112  1.00  0.00     0.101 C 
ENDROOT
BRANCH   1   2
ATOM      2  C   UNL     1      -1.716   1.066  -2.381  1.00  0.00     0.201 C 
ATOM      3  Cl  UNL     1      -1.067   1.687  -3.933  1.00  0.00    -0.083 Cl
ATOM      4  Cl  UNL     1      -3.523   1.067  -2.547  1.00  0.00    -0.083 Cl
ATOM      5  Cl  UNL     1      -1.235  -0.666  -2.219  1.00  0.00    -0.083 Cl
ENDBRANCH   1   2
BRANCH   1   6
ATOM      6  C   UNL     1      -1.716   3.357  -1.142  1.00  0.00    -0.036 A 
ATOM      7  C   UNL     1      -1.612   4.088  -2.325  1.00  0.00     0.006 A 
ATOM      8  C   UNL     1      -2.203   3.968   0.015  1.00  0.00     0.006 A 
ATOM      9  C   UNL     1      -1.995   5.429  -2.353  1.00  0.00     0.021 A 
ATOM     10  C   UNL     1      -2.587   5.309  -0.013  1.00  0.00     0.021 A 
ATOM     11  C   UNL     1      -2.483   6.039  -1.197  1.00  0.00     0.041 A 
ATOM     12  Cl  UNL     1      -2.955   7.694  -1.231  1.00  0.00    -0.084 Cl
ENDBRANCH   1   6
BRANCH   1  13
ATOM     13  C   UNL     1       0.138   1.725  -0.584  1.00  0.00    -0.036 A 
ATOM     14  C   UNL     1       1.165   2.248  -1.318  1.00  0.00     0.006 A 
ATOM     15  C   UNL     1       0.302   1.035   0.585  1.00  0.00     0.006 A 
ATOM     16  C   UNL     1       2.464   2.067  -0.843  1.00  0.00     0.021 A 
ATOM     17  C   UNL     1       1.601   0.854   1.059  1.00  0.00     0.021 A 
ATOM     18  C   UNL     1       2.682   1.371   0.345  1.00  0.00     0.041 A 
ATOM     19  Cl  UNL     1       4.285   1.146   0.931  1.00  0.00    -0.084 Cl
ENDBRANCH   1  13
TORSDOF 3
ENDMDL
MODEL 2
REMARK VINA RESULT:    -6.191      0.230      1.598
REMARK INTER + INTRA:          -7.885
REMARK INTER:                  -7.272
REMARK INTRA:                  -0.613
REMARK UNBOUND:                -0.609
REMARK SMILES Clc1ccc(C(c2ccc(Cl)cc2)C(Cl)(Cl)Cl)cc1
REMARK SMILES IDX 6 1 14 2 15 3 16 4 17 5 5 6 4 7 18 8 3 9 19 10 2 11 1 12
REMARK SMILES IDX 7 13 8 14 13 15 9 16 12 17 10 18 11 19
REMARK H PARENT
REMARK Flexibility Score: inf
ROOT
ATOM      1  C   UNL     1      -1.380   1.970  -1.274  1.00  0.00     0.101 C 
ENDROOT
BRANCH   1   2
ATOM      2  C   UNL     1      -1.808   1.109  -2.536  1.00  0.00     0.201 C 
ATOM      3  Cl  UNL     1      -3.573   1.089  -2.851  1.00  0.00    -0.083 Cl
ATOM      4  Cl  UNL     1      -1.317  -0.618  -2.277  1.00  0.00    -0.083 Cl
ATOM      5  Cl  UNL     1      -0.970   1.642  -4.043  1.00  0.00    -0.083 Cl
ENDBRANCH   1   2
BRANCH   1   6
ATOM      6  C   UNL     1      -1.812   3.398  -1.291  1.00  0.00    -0.036 A 
ATOM      7  C   UNL     1      -1.859   4.098  -2.496  1.00  0.00     0.006 A 
ATOM      8  C   UNL     1      -2.168   4.033  -0.100  1.00  0.00     0.006 A 
ATOM      9  C   UNL     1      -2.261   5.434  -2.511  1.00  0.00     0.021 A 
ATOM     10  C   UNL     1      -2.571   5.368  -0.116  1.00  0.00     0.021 A 
ATOM     11  C   UNL     1      -2.618   6.068  -1.321  1.00  0.00     0.041 A 
ATOM     12  Cl  UNL     1      -3.114   7.717  -1.339  1.00  0.00    -0.084 Cl
ENDBRANCH   1   6
BRANCH   1  13
ATOM     13  C   UNL     1       0.078   1.791  -0.781  1.00  0.00    -0.036 A 
ATOM     14  C   UNL     1       0.282   1.072   0.363  1.00  0.00     0.006 A 
ATOM     15  C   UNL     1       1.077   2.362  -1.519  1.00  0.00     0.006 A 
ATOM     16  C   UNL     1       1.595   0.912   0.807  1.00  0.00     0.021 A 
ATOM     17  C   UNL     1       2.389   2.203  -1.074  1.00  0.00     0.021 A 
ATOM     18  C   UNL     1       2.648   1.477   0.089  1.00  0.00     0.041 A 
ATOM     19  Cl  UNL     1       4.268   1.280   0.637  1.00  0.00    -0.084 Cl
ENDBRANCH   1  13
TORSDOF 3
ENDMDL
MODEL 3
REMARK VINA RESULT:    -5.985      2.300      4.709
REMARK INTER + INTRA:          -7.643
REMARK INTER:                  -7.032
REMARK INTRA:                  -0.612
REMARK UNBOUND:                -0.609
REMARK SMILES Clc1ccc(C(c2ccc(Cl)cc2)C(Cl)(Cl)Cl)cc1
REMARK SMILES IDX 6 1 14 2 15 3 16 4 17 5 5 6 4 7 18 8 3 9 19 10 2 11 1 12
REMARK SMILES IDX 7 13 8 14 13 15 9 16 12 17 10 18 11 19
REMARK H PARENT
REMARK Flexibility Score: inf
ROOT
ATOM      1  C   UNL     1      -0.153   1.497  -1.833  1.00  0.00     0.101 C 
ENDROOT
BRANCH   1   2
ATOM      2  C   UNL     1       0.246   0.952  -0.398  1.00  0.00     0.201 C 
ATOM      3  Cl  UNL     1      -0.757   1.598   0.941  1.00  0.00    -0.083 Cl
ATOM      4  Cl  UNL     1       1.957   1.431  -0.029  1.00  0.00    -0.083 Cl
ATOM      5  Cl  UNL     1       0.207  -0.850  -0.316  1.00  0.00    -0.083 Cl
ENDBRANCH   1   2
BRANCH   1   6
ATOM      6  C   UNL     1      -0.065   2.975  -2.011  1.00  0.00    -0.036 A 
ATOM      7  C   UNL     1       0.493   3.505  -3.173  1.00  0.00     0.006 A 
ATOM      8  C   UNL     1      -0.539   3.827  -1.013  1.00  0.00     0.006 A 
ATOM      9  C   UNL     1       0.577   4.888  -3.339  1.00  0.00     0.021 A 
ATOM     10  C   UNL     1      -0.456   5.209  -1.178  1.00  0.00     0.021 A 
ATOM     11  C   UNL     1       0.102   5.740  -2.341  1.00  0.00     0.041 A 
ATOM     12  Cl  UNL     1       0.206   7.446  -2.545  1.00  0.00    -0.084 Cl
ENDBRANCH   1   6
BRANCH   1  13
ATOM     13  C   UNL     1      -1.431   0.892  -2.468  1.00  0.00    -0.036 A 
ATOM     14  C   UNL     1      -1.276  -0.017  -3.477  1.00  0.00     0.006 A 
ATOM     15  C   UNL     1      -2.641   1.303  -1.983  1.00  0.00     0.006 A 
ATOM     16  C   UNL     1      -2.426  -0.559  -4.048  1.00  0.00     0.021 A 
ATOM     17  C   UNL     1      -3.792   0.761  -2.555  1.00  0.00     0.021 A 
ATOM     18  C   UNL     1      -3.684  -0.171  -3.588  1.00  0.00     0.041 A 
ATOM     19  Cl  UNL     1      -5.104  -0.840  -4.294  1.00  0.00    -0.084 Cl
ENDBRANCH   1  13
TORSDOF 3
ENDMDL
MODEL 4
REMARK VINA RESULT:    -5.846      1.145      5.567
REMARK INTER + INTRA:          -7.481
REMARK INTER:                  -6.831
REMARK INTRA:                  -0.649
REMARK UNBOUND:                -0.609
REMARK SMILES Clc1ccc(C(c2ccc(Cl)cc2)C(Cl)(Cl)Cl)cc1
REMARK SMILES IDX 6 1 14 2 15 3 16 4 17 5 5 6 4 7 18 8 3 9 19 10 2 11 1 12
REMARK SMILES IDX 7 13 8 14 13 15 9 16 12 17 10 18 11 19
REMARK H PARENT
REMARK Flexibility Score: inf
ROOT
ATOM      1  C   UNL     1      -0.728   2.771  -2.474  1.00  0.00     0.101 C 
ENDROOT
BRANCH   1   2
ATOM      2  C   UNL     1      -1.741   1.791  -3.201  1.00  0.00     0.201 C 
ATOM      3  Cl  UNL     1      -3.058   1.178  -2.150  1.00  0.00    -0.083 Cl
ATOM      4  Cl  UNL     1      -0.843   0.331  -3.796  1.00  0.00    -0.083 Cl
ATOM      5  Cl  UNL     1      -2.488   2.542  -4.663  1.00  0.00    -0.083 Cl
ENDBRANCH   1   2
BRANCH   1   6
ATOM      6  C   UNL     1       0.039   2.181  -1.340  1.00  0.00    -0.036 A 
ATOM      7  C   UNL     1      -0.638   1.652  -0.241  1.00  0.00     0.006 A 
ATOM      8  C   UNL     1       1.433   2.159  -1.376  1.00  0.00     0.006 A 
ATOM      9  C   UNL     1       0.079   1.101   0.821  1.00  0.00     0.021 A 
ATOM     10  C   UNL     1       2.150   1.608  -0.315  1.00  0.00     0.021 A 
ATOM     11  C   UNL     1       1.473   1.079   0.784  1.00  0.00     0.041 A 
ATOM     12  Cl  UNL     1       2.358   0.399   2.095  1.00  0.00    -0.084 Cl
ENDBRANCH   1   6
BRANCH   1  13
ATOM     13  C   UNL     1      -1.251   4.197  -2.167  1.00  0.00    -0.036 A 
ATOM     14  C   UNL     1      -2.391   4.314  -1.423  1.00  0.00     0.006 A 
ATOM     15  C   UNL     1      -0.542   5.257  -2.660  1.00  0.00     0.006 A 
ATOM     16  C   UNL     1      -2.862   5.598  -1.149  1.00  0.00     0.021 A 
ATOM     17  C   UNL     1      -1.014   6.541  -2.385  1.00  0.00     0.021 A 
ATOM     18  C   UNL     1      -2.173   6.712  -1.629  1.00  0.00     0.041 A 
ATOM     19  Cl  UNL     1      -2.755   8.296  -1.291  1.00  0.00    -0.084 Cl
ENDBRANCH   1  13
TORSDOF 3
ENDMDL
MODEL 5
REMARK VINA RESULT:    -5.825      2.592      4.088
REMARK INTER + INTRA:          -7.455
REMARK INTER:                  -7.061
REMARK INTRA:                  -0.394
REMARK UNBOUND:                -0.609
REMARK SMILES Clc1ccc(C(c2ccc(Cl)cc2)C(Cl)(Cl)Cl)cc1
REMARK SMILES IDX 6 1 14 2 15 3 16 4 17 5 5 6 4 7 18 8 3 9 19 10 2 11 1 12
REMARK SMILES IDX 7 13 8 14 13 15 9 16 12 17 10 18 11 19
REMARK H PARENT
REMARK Flexibility Score: inf
ROOT
ATOM      1  C   UNL     1      -4.440   3.994  -1.694  1.00  0.00     0.101 C 
ENDROOT
BRANCH   1   2
ATOM      2  C   UNL     1      -5.423   3.161  -2.618  1.00  0.00     0.201 C 
ATOM      3  Cl  UNL     1      -7.162   3.423  -2.271  1.00  0.00    -0.083 Cl
ATOM      4  Cl  UNL     1      -5.117   1.389  -2.376  1.00  0.00    -0.083 Cl
ATOM      5  Cl  UNL     1      -5.143   3.476  -4.373  1.00  0.00    -0.083 Cl
ENDBRANCH   1   2
BRANCH   1   6
ATOM      6  C   UNL     1      -4.354   5.453  -1.993  1.00  0.00    -0.036 A 
ATOM      7  C   UNL     1      -3.237   6.182  -1.587  1.00  0.00     0.006 A 
ATOM      8  C   UNL     1      -5.391   6.087  -2.676  1.00  0.00     0.006 A 
ATOM      9  C   UNL     1      -3.156   7.547  -1.866  1.00  0.00     0.021 A 
ATOM     10  C   UNL     1      -5.311   7.451  -2.955  1.00  0.00     0.021 A 
ATOM     11  C   UNL     1      -4.194   8.181  -2.550  1.00  0.00     0.041 A 
ATOM     12  Cl  UNL     1      -4.095   9.865  -2.893  1.00  0.00    -0.084 Cl
ENDBRANCH   1   6
BRANCH   1  13
ATOM     13  C   UNL     1      -3.056   3.357  -1.411  1.00  0.00    -0.036 A 
ATOM     14  C   UNL     1      -2.798   2.924  -0.141  1.00  0.00     0.006 A 
ATOM     15  C   UNL     1      -2.171   3.266  -2.449  1.00  0.00     0.006 A 
ATOM     16  C   UNL     1      -1.551   2.353   0.113  1.00  0.00     0.021 A 
ATOM     17  C   UNL     1      -0.924   2.694  -2.195  1.00  0.00     0.021 A 
ATOM     18  C   UNL     1      -0.614   2.237  -0.914  1.00  0.00     0.041 A 
ATOM     19  Cl  UNL     1       0.925   1.532  -0.601  1.00  0.00    -0.084 Cl
ENDBRANCH   1  13
TORSDOF 3
ENDMDL
