MODEL 1
REMARK VINA RESULT:    -6.654      0.000      0.000
REMARK INTER + INTRA:         -12.506
REMARK INTER:                  -9.377
REMARK INTRA:                  -3.129
REMARK UNBOUND:                -3.129
REMARK SMILES CC1(C)[C@H](C=C(Cl)Cl)[C@H]1C(=O)OCc1cccc(Oc2ccccc2)c1
REMARK SMILES IDX 13 1 12 2 10 3 11 4 9 5 4 6 2 7 1 8 3 9 5 10 7 11 6 12 8 13
REMARK SMILES IDX 14 14 26 15 15 16 18 17 16 18 17 19 19 20 20 21 21 22 25 23
REMARK SMILES IDX 22 24 24 25 23 26
REMARK H PARENT
REMARK Flexibility Score: inf
ROOT
ATOM      1  C   UNL     1      -0.580   6.852  -3.160  1.00  0.00     0.268 C 
ENDROOT
BRANCH   1   2
ATOM      2  O   UNL     1      -0.386   5.463  -2.925  1.00  0.00    -0.461 OA
BRANCH   2   3
ATOM      3  C   UNL     1       0.004   5.123  -1.662  1.00  0.00     0.310 C 
ATOM      4  O   UNL     1       0.711   5.784  -0.915  1.00  0.00    -0.252 OA
BRANCH   3   5
ATOM      5  C   UNL     1      -0.538   3.802  -1.253  1.00  0.00     0.113 C 
ATOM      6  C   UNL     1      -1.696   3.243  -2.017  1.00  0.00     0.035 C 
ATOM      7  C   UNL     1      -1.883   3.714  -0.604  1.00  0.00    -0.014 C 
ATOM      8  C   UNL     1      -2.129   2.675   0.438  1.00  0.00     0.012 C 
ATOM      9  C   UNL     1      -2.596   4.997  -0.338  1.00  0.00     0.012 C 
BRANCH   6  10
ATOM     10  C   UNL     1      -1.696   1.821  -2.326  1.00  0.00     0.011 C 
ATOM     11  Cl  UNL     1      -0.066   2.055  -4.459  1.00  0.00    -0.071 Cl
ATOM     12  C   UNL     1      -1.050   1.201  -3.326  1.00  0.00     0.103 C 
ATOM     13  Cl  UNL     1      -1.183  -0.512  -3.524  1.00  0.00    -0.071 Cl
ENDBRANCH   6  10
ENDBRANCH   3   5
ENDBRANCH   2   3
ENDBRANCH   1   2
BRANCH   1  14
ATOM     14  C   UNL     1      -2.035   7.171  -3.076  1.00  0.00    -0.007 A 
ATOM     15  C   UNL     1      -2.971   6.311  -3.648  1.00  0.00     0.054 A 
ATOM     16  C   UNL     1      -2.458   8.329  -2.423  1.00  0.00     0.007 A 
ATOM     17  C   UNL     1      -4.331   6.610  -3.569  1.00  0.00     0.127 A 
ATOM     18  C   UNL     1      -3.818   8.628  -2.345  1.00  0.00     0.004 A 
ATOM     19  C   UNL     1      -4.754   7.767  -2.917  1.00  0.00     0.047 A 
BRANCH  17  20
ATOM     20  O   UNL     1      -5.246   5.770  -4.128  1.00  0.00    -0.457 OA
BRANCH  20  21
ATOM     21  C   UNL     1      -5.225   4.442  -3.738  1.00  0.00     0.127 A 
ATOM     22  C   UNL     1      -5.548   4.118  -2.432  1.00  0.00     0.047 A 
ATOM     23  C   UNL     1      -4.882   3.473  -4.663  1.00  0.00     0.047 A 
ATOM     24  C   UNL     1      -5.526   2.781  -2.039  1.00  0.00     0.004 A 
ATOM     25  C   UNL     1      -4.861   2.135  -4.269  1.00  0.00     0.004 A 
ATOM     26  C   UNL     1      -5.184   1.789  -2.958  1.00  0.00     0.000 A 
ENDBRANCH  20  21
ENDBRANCH  17  20
ENDBRANCH   1  14
TORSDOF 7
ENDMDL
MODEL 2
REMARK VINA RESULT:    -6.333      2.849      6.047
REMARK INTER + INTRA:         -12.053
REMARK INTER:                  -9.172
REMARK INTRA:                  -2.881
REMARK UNBOUND:                -3.129
REMARK SMILES CC1(C)[C@H](C=C(Cl)Cl)[C@H]1C(=O)OCc1cccc(Oc2ccccc2)c1
REMARK SMILES IDX 13 1 12 2 10 3 11 4 9 5 4 6 2 7 1 8 3 9 5 10 7 11 6 12 8 13
REMARK SMILES IDX 14 14 26 15 15 16 18 17 16 18 17 19 19 20 20 21 21 22 25 23
REMARK SMILES IDX 22 24 24 25 23 26
REMARK H PARENT
REMARK Flexibility Score: inf
ROOT
ATOM      1  C   UNL     1      -5.113   2.710  -4.588  1.00  0.00     0.268 C 
ENDROOT
BRANCH   1   2
ATOM      2  O   UNL     1      -4.383   3.749  -3.950  1.00  0.00    -0.461 OA
BRANCH   2   3
ATOM      3  C   UNL     1      -4.881   4.177  -2.753  1.00  0.00     0.310 C 
ATOM      4  O   UNL     1      -6.041   4.092  -2.375  1.00  0.00    -0.252 OA
BRANCH   3   5
ATOM      5  C   UNL     1      -3.829   4.788  -1.903  1.00  0.00     0.113 C 
ATOM      6  C   UNL     1      -2.398   4.488  -2.219  1.00  0.00     0.035 C 
ATOM      7  C   UNL     1      -3.026   3.933  -0.974  1.00  0.00    -0.014 C 
ATOM      8  C   UNL     1      -2.571   4.493   0.332  1.00  0.00     0.012 C 
ATOM      9  C   UNL     1      -3.380   2.486  -0.904  1.00  0.00     0.012 C 
BRANCH   6  10
ATOM     10  C   UNL     1      -1.431   5.574  -2.137  1.00  0.00     0.011 C 
ATOM     11  Cl  UNL     1      -2.294   6.813  -4.369  1.00  0.00    -0.071 Cl
ATOM     12  C   UNL     1      -1.288   6.608  -2.979  1.00  0.00     0.103 C 
ATOM     13  Cl  UNL     1      -0.066   7.800  -2.702  1.00  0.00    -0.071 Cl
ENDBRANCH   6  10
ENDBRANCH   3   5
ENDBRANCH   2   3
ENDBRANCH   1   2
BRANCH   1  14
ATOM     14  C   UNL     1      -4.349   1.433  -4.489  1.00  0.00    -0.007 A 
ATOM     15  C   UNL     1      -2.974   1.460  -4.255  1.00  0.00     0.054 A 
ATOM     16  C   UNL     1      -5.009   0.212  -4.630  1.00  0.00     0.007 A 
ATOM     17  C   UNL     1      -2.260   0.265  -4.161  1.00  0.00     0.127 A 
ATOM     18  C   UNL     1      -4.295  -0.982  -4.538  1.00  0.00     0.004 A 
ATOM     19  C   UNL     1      -2.920  -0.955  -4.303  1.00  0.00     0.047 A 
BRANCH  17  20
ATOM     20  O   UNL     1      -0.918   0.290  -3.933  1.00  0.00    -0.457 OA
BRANCH  20  21
ATOM     21  C   UNL     1      -0.486   0.689  -2.680  1.00  0.00     0.127 A 
ATOM     22  C   UNL     1       0.092   1.939  -2.533  1.00  0.00     0.047 A 
ATOM     23  C   UNL     1      -0.642  -0.169  -1.607  1.00  0.00     0.047 A 
ATOM     24  C   UNL     1       0.528   2.341  -1.271  1.00  0.00     0.004 A 
ATOM     25  C   UNL     1      -0.206   0.234  -0.345  1.00  0.00     0.004 A 
ATOM     26  C   UNL     1       0.379   1.490  -0.177  1.00  0.00     0.000 A 
ENDBRANCH  20  21
ENDBRANCH  17  20
ENDBRANCH   1  14
TORSDOF 7
ENDMDL
MODEL 3
REMARK VINA RESULT:    -6.318      2.300      4.475
REMARK INTER + INTRA:         -12.032
REMARK INTER:                  -9.861
REMARK INTRA:                  -2.171
REMARK UNBOUND:                -3.129
REMARK SMILES CC1(C)[C@H](C=C(Cl)Cl)[C@H]1C(=O)OCc1cccc(Oc2ccccc2)c1
REMARK SMILES IDX 13 1 12 2 10 3 11 4 9 5 4 6 2 7 1 8 3 9 5 10 7 11 6 12 8 13
REMARK SMILES IDX 14 14 26 15 15 16 18 17 16 18 17 19 19 20 20 21 21 22 25 23
REMARK SMILES IDX 22 24 24 25 23 26
REMARK H PARENT
REMARK Flexibility Score: inf
ROOT
ATOM      1  C   UNL     1      -4.327   2.016  -4.268  1.00  0.00     0.268 C 
ENDROOT
BRANCH   1   2
ATOM      2  O   UNL     1      -2.953   2.017  -3.902  1.00  0.00    -0.461 OA
BRANCH   2   3
ATOM      3  C   UNL     1      -2.675   1.581  -2.639  1.00  0.00     0.310 C 
ATOM      4  O   UNL     1      -3.238   0.675  -2.040  1.00  0.00    -0.252 OA
BRANCH   3   5
ATOM      5  C   UNL     1      -1.562   2.346  -2.022  1.00  0.00     0.113 C 
ATOM      6  C   UNL     1      -1.257   2.113  -0.577  1.00  0.00     0.035 C 
ATOM      7  C   UNL     1      -1.855   3.416  -1.019  1.00  0.00    -0.014 C 
ATOM      8  C   UNL     1      -0.985   4.626  -0.959  1.00  0.00     0.012 C 
ATOM      9  C   UNL     1      -3.290   3.707  -0.734  1.00  0.00     0.012 C 
BRANCH   6  10
ATOM     10  C   UNL     1       0.140   2.043  -0.170  1.00  0.00     0.011 C 
ATOM     11  Cl  UNL     1       0.247  -0.649  -0.194  1.00  0.00    -0.071 Cl
ATOM     12  C   UNL     1       0.882   0.942   0.025  1.00  0.00     0.103 C 
ATOM     13  Cl  UNL     1       2.535   1.077   0.514  1.00  0.00    -0.071 Cl
ENDBRANCH   6  10
ENDBRANCH   3   5
ENDBRANCH   2   3
ENDBRANCH   1   2
BRANCH   1  14
ATOM     14  C   UNL     1      -4.996   3.216  -3.690  1.00  0.00    -0.007 A 
ATOM     15  C   UNL     1      -4.540   4.494  -4.017  1.00  0.00     0.054 A 
ATOM     16  C   UNL     1      -6.078   3.062  -2.823  1.00  0.00     0.007 A 
ATOM     17  C   UNL     1      -5.167   5.616  -3.477  1.00  0.00     0.127 A 
ATOM     18  C   UNL     1      -6.704   4.185  -2.283  1.00  0.00     0.004 A 
ATOM     19  C   UNL     1      -6.248   5.462  -2.610  1.00  0.00     0.047 A 
BRANCH  17  20
ATOM     20  O   UNL     1      -4.722   6.863  -3.795  1.00  0.00    -0.457 OA
BRANCH  20  21
ATOM     21  C   UNL     1      -3.500   7.262  -3.283  1.00  0.00     0.127 A 
ATOM     22  C   UNL     1      -3.428   7.693  -1.970  1.00  0.00     0.047 A 
ATOM     23  C   UNL     1      -2.382   7.219  -4.096  1.00  0.00     0.047 A 
ATOM     24  C   UNL     1      -2.197   8.095  -1.454  1.00  0.00     0.004 A 
ATOM     25  C   UNL     1      -1.150   7.621  -3.578  1.00  0.00     0.004 A 
ATOM     26  C   UNL     1      -1.057   8.058  -2.257  1.00  0.00     0.000 A 
ENDBRANCH  20  21
ENDBRANCH  17  20
ENDBRANCH   1  14
TORSDOF 7
ENDMDL
MODEL 4
REMARK VINA RESULT:    -6.295      2.718      5.198
REMARK INTER + INTRA:         -11.999
REMARK INTER:                  -8.883
REMARK INTRA:                  -3.117
REMARK UNBOUND:                -3.129
REMARK SMILES CC1(C)[C@H](C=C(Cl)Cl)[C@H]1C(=O)OCc1cccc(Oc2ccccc2)c1
REMARK SMILES IDX 13 1 12 2 10 3 11 4 9 5 4 6 2 7 1 8 3 9 5 10 7 11 6 12 8 13
REMARK SMILES IDX 14 14 26 15 15 16 18 17 16 18 17 19 19 20 20 21 21 22 25 23
REMARK SMILES IDX 22 24 24 25 23 26
REMARK H PARENT
REMARK Flexibility Score: inf
ROOT
ATOM      1  C   UNL     1      -0.521   0.973  -0.915  1.00  0.00     0.268 C 
ENDROOT
BRANCH   1   2
ATOM      2  O   UNL     1      -0.424   2.385  -0.779  1.00  0.00    -0.461 OA
BRANCH   2   3
ATOM      3  C   UNL     1       0.695   2.958  -1.310  1.00  0.00     0.310 C 
ATOM      4  O   UNL     1       1.833   2.512  -1.265  1.00  0.00    -0.252 OA
BRANCH   3   5
ATOM      5  C   UNL     1       0.390   4.243  -1.988  1.00  0.00     0.113 C 
ATOM      6  C   UNL     1      -1.019   4.500  -2.422  1.00  0.00     0.035 C 
ATOM      7  C   UNL     1       0.052   4.260  -3.445  1.00  0.00    -0.014 C 
ATOM      8  C   UNL     1       0.473   5.420  -4.284  1.00  0.00     0.012 C 
ATOM      9  C   UNL     1       0.107   2.958  -4.171  1.00  0.00     0.012 C 
BRANCH   6  10
ATOM     10  C   UNL     1      -1.567   5.834  -2.228  1.00  0.00     0.011 C 
ATOM     11  Cl  UNL     1      -2.807   5.233   0.088  1.00  0.00    -0.071 Cl
ATOM     12  C   UNL     1      -2.333   6.265  -1.214  1.00  0.00     0.103 C 
ATOM     13  Cl  UNL     1      -2.889   7.902  -1.171  1.00  0.00    -0.071 Cl
ENDBRANCH   6  10
ENDBRANCH   3   5
ENDBRANCH   2   3
ENDBRANCH   1   2
BRANCH   1  14
ATOM     14  C   UNL     1      -1.506   0.643  -1.985  1.00  0.00    -0.007 A 
ATOM     15  C   UNL     1      -2.735   1.302  -2.028  1.00  0.00     0.054 A 
ATOM     16  C   UNL     1      -1.197  -0.322  -2.943  1.00  0.00     0.007 A 
ATOM     17  C   UNL     1      -3.656   0.993  -3.029  1.00  0.00     0.127 A 
ATOM     18  C   UNL     1      -2.118  -0.631  -3.943  1.00  0.00     0.004 A 
ATOM     19  C   UNL     1      -3.348   0.028  -3.986  1.00  0.00     0.047 A 
BRANCH  17  20
ATOM     20  O   UNL     1      -4.856   1.635  -3.071  1.00  0.00    -0.457 OA
BRANCH  20  21
ATOM     21  C   UNL     1      -4.850   2.996  -3.323  1.00  0.00     0.127 A 
ATOM     22  C   UNL     1      -5.573   3.837  -2.496  1.00  0.00     0.047 A 
ATOM     23  C   UNL     1      -4.122   3.481  -4.394  1.00  0.00     0.047 A 
ATOM     24  C   UNL     1      -5.567   5.208  -2.749  1.00  0.00     0.004 A 
ATOM     25  C   UNL     1      -4.116   4.853  -4.647  1.00  0.00     0.004 A 
ATOM     26  C   UNL     1      -4.839   5.717  -3.824  1.00  0.00     0.000 A 
ENDBRANCH  20  21
ENDBRANCH  17  20
ENDBRANCH   1  14
TORSDOF 7
ENDMDL
MODEL 5
REMARK VINA RESULT:    -6.182      2.829      5.032
REMARK INTER + INTRA:         -11.840
REMARK INTER:                  -9.784
REMARK INTRA:                  -2.056
REMARK UNBOUND:                -3.129
REMARK SMILES CC1(C)[C@H](C=C(Cl)Cl)[C@H]1C(=O)OCc1cccc(Oc2ccccc2)c1
REMARK SMILES IDX 13 1 12 2 10 3 11 4 9 5 4 6 2 7 1 8 3 9 5 10 7 11 6 12 8 13
REMARK SMILES IDX 14 14 26 15 15 16 18 17 16 18 17 19 19 20 20 21 21 22 25 23
REMARK SMILES IDX 22 24 24 25 23 26
REMARK H PARENT
REMARK Flexibility Score: inf
ROOT
ATOM      1  C   UNL     1       1.068   3.994  -1.908  1.00  0.00     0.268 C 
ENDROOT
BRANCH   1   2
ATOM      2  O   UNL     1       0.350   4.877  -1.055  1.00  0.00    -0.461 OA
BRANCH   2   3
ATOM      3  C   UNL     1      -0.643   5.600  -1.649  1.00  0.00     0.310 C 
ATOM      4  O   UNL     1      -0.610   6.790  -1.930  1.00  0.00    -0.252 OA
BRANCH   3   5
ATOM      5  C   UNL     1      -1.836   4.766  -1.943  1.00  0.00     0.113 C 
ATOM      6  C   UNL     1      -3.179   5.424  -1.943  1.00  0.00     0.035 C 
ATOM      7  C   UNL     1      -2.816   4.452  -0.858  1.00  0.00    -0.014 C 
ATOM      8  C   UNL     1      -3.513   3.133  -0.857  1.00  0.00     0.012 C 
ATOM      9  C   UNL     1      -2.499   4.953   0.510  1.00  0.00     0.012 C 
BRANCH   6  10
ATOM     10  C   UNL     1      -4.130   5.050  -2.980  1.00  0.00     0.011 C 
ATOM     11  Cl  UNL     1      -5.607   7.291  -2.750  1.00  0.00    -0.071 Cl
ATOM     12  C   UNL     1      -5.192   5.750  -3.408  1.00  0.00     0.103 C 
ATOM     13  Cl  UNL     1      -6.206   5.122  -4.660  1.00  0.00    -0.071 Cl
ENDBRANCH   6  10
ENDBRANCH   3   5
ENDBRANCH   2   3
ENDBRANCH   1   2
BRANCH   1  14
ATOM     14  C   UNL     1       0.450   2.638  -1.852  1.00  0.00    -0.007 A 
ATOM     15  C   UNL     1      -0.096   2.073  -3.005  1.00  0.00     0.054 A 
ATOM     16  C   UNL     1       0.418   1.934  -0.648  1.00  0.00     0.007 A 
ATOM     17  C   UNL     1      -0.674   0.804  -2.953  1.00  0.00     0.127 A 
ATOM     18  C   UNL     1      -0.160   0.667  -0.596  1.00  0.00     0.004 A 
ATOM     19  C   UNL     1      -0.705   0.101  -1.749  1.00  0.00     0.047 A 
BRANCH  17  20
ATOM     20  O   UNL     1      -1.206   0.252  -4.077  1.00  0.00    -0.457 OA
BRANCH  20  21
ATOM     21  C   UNL     1      -2.582   0.296  -4.227  1.00  0.00     0.127 A 
ATOM     22  C   UNL     1      -3.292  -0.891  -4.280  1.00  0.00     0.047 A 
ATOM     23  C   UNL     1      -3.211   1.524  -4.321  1.00  0.00     0.047 A 
ATOM     24  C   UNL     1      -4.677  -0.846  -4.432  1.00  0.00     0.004 A 
ATOM     25  C   UNL     1      -4.598   1.567  -4.472  1.00  0.00     0.004 A 
ATOM     26  C   UNL     1      -5.330   0.382  -4.526  1.00  0.00     0.000 A 
ENDBRANCH  20  21
ENDBRANCH  17  20
ENDBRANCH   1  14
TORSDOF 7
ENDMDL
