MODEL 1
REMARK VINA RESULT:    -6.232      0.000      0.000
REMARK INTER + INTRA:          -7.919
REMARK INTER:                  -7.325
REMARK INTRA:                  -0.594
REMARK UNBOUND:                -0.594
REMARK SMILES Clc1ccc(C(c2ccc(Cl)cc2)C(Cl)(Cl)Cl)cc1
REMARK SMILES IDX 6 1 14 2 15 3 16 4 17 5 5 6 4 7 18 8 3 9 19 10 2 11 1 12
REMARK SMILES IDX 7 13 8 14 13 15 9 16 12 17 10 18 11 19
REMARK H PARENT
REMARK Flexibility Score: inf
ROOT
ATOM      1  C   UNL     1      -1.334   1.953  -1.118  1.00  0.00     0.101 C 
ENDROOT
BRANCH   1   2
ATOM      2  C   UNL     1      -1.763   1.083  -2.373  1.00  0.00     0.201 C 
ATOM      3  Cl  UNL     1      -1.180   1.718  -3.945  1.00  0.00    -0.083 Cl
ATOM      4  Cl  UNL     1      -3.574   1.039  -2.482  1.00  0.00    -0.083 Cl
ATOM      5  Cl  UNL     1      -1.234  -0.636  -2.225  1.00  0.00    -0.083 Cl
ENDBRANCH   1   2
BRANCH   1   6
ATOM      6  C   UNL     1      -1.744   3.387  -1.156  1.00  0.00    -0.036 A 
ATOM      7  C   UNL     1      -1.635   4.112  -2.342  1.00  0.00     0.006 A 
ATOM      8  C   UNL     1      -2.235   4.003  -0.005  1.00  0.00     0.006 A 
ATOM      9  C   UNL     1      -2.017   5.453  -2.378  1.00  0.00     0.021 A 
ATOM     10  C   UNL     1      -2.618   5.344  -0.040  1.00  0.00     0.021 A 
ATOM     11  C   UNL     1      -2.509   6.069  -1.227  1.00  0.00     0.041 A 
ATOM     12  Cl  UNL     1      -2.980   7.724  -1.270  1.00  0.00    -0.084 Cl
ENDBRANCH   1   6
BRANCH   1  13
ATOM     13  C   UNL     1       0.116   1.758  -0.609  1.00  0.00    -0.036 A 
ATOM     14  C   UNL     1       1.135   2.256  -1.372  1.00  0.00     0.006 A 
ATOM     15  C   UNL     1       0.294   1.097   0.574  1.00  0.00     0.006 A 
ATOM     16  C   UNL     1       2.440   2.078  -0.914  1.00  0.00     0.021 A 
ATOM     17  C   UNL     1       1.600   0.918   1.032  1.00  0.00     0.021 A 
ATOM     18  C   UNL     1       2.673   1.410   0.288  1.00  0.00     0.041 A 
ATOM     19  Cl  UNL     1       4.284   1.189   0.853  1.00  0.00    -0.084 Cl
ENDBRANCH   1  13
TORSDOF 3
ENDMDL
MODEL 2
REMARK VINA RESULT:    -5.966      2.315      4.881
REMARK INTER + INTRA:          -7.606
REMARK INTER:                  -6.999
REMARK INTRA:                  -0.607
REMARK UNBOUND:                -0.594
REMARK SMILES Clc1ccc(C(c2ccc(Cl)cc2)C(Cl)(Cl)Cl)cc1
REMARK SMILES IDX 6 1 14 2 15 3 16 4 17 5 5 6 4 7 18 8 3 9 19 10 2 11 1 12
REMARK SMILES IDX 7 13 8 14 13 15 9 16 12 17 10 18 11 19
REMARK H PARENT
REMARK Flexibility Score: inf
ROOT
ATOM      1  C   UNL     1      -0.214   1.467  -1.797  1.00  0.00     0.101 C 
ENDROOT
BRANCH   1   2
ATOM      2  C   UNL     1       0.173   0.946  -0.350  1.00  0.00     0.201 C 
ATOM      3  Cl  UNL     1      -0.850   1.602   0.969  1.00  0.00    -0.083 Cl
ATOM      4  Cl  UNL     1       1.876   1.444   0.032  1.00  0.00    -0.083 Cl
ATOM      5  Cl  UNL     1       0.148  -0.855  -0.243  1.00  0.00    -0.083 Cl
ENDBRANCH   1   2
BRANCH   1   6
ATOM      6  C   UNL     1      -0.124   2.943  -1.997  1.00  0.00    -0.036 A 
ATOM      7  C   UNL     1      -0.595   3.810  -1.011  1.00  0.00     0.006 A 
ATOM      8  C   UNL     1       0.428   3.455  -3.172  1.00  0.00     0.006 A 
ATOM      9  C   UNL     1      -0.512   5.190  -1.199  1.00  0.00     0.021 A 
ATOM     10  C   UNL     1       0.511   4.835  -3.359  1.00  0.00     0.021 A 
ATOM     11  C   UNL     1       0.041   5.702  -2.373  1.00  0.00     0.041 A 
ATOM     12  Cl  UNL     1       0.142   7.405  -2.605  1.00  0.00    -0.084 Cl
ENDBRANCH   1   6
BRANCH   1  13
ATOM     13  C   UNL     1      -1.486   0.852  -2.432  1.00  0.00    -0.036 A 
ATOM     14  C   UNL     1      -2.701   1.310  -2.004  1.00  0.00     0.006 A 
ATOM     15  C   UNL     1      -1.322  -0.115  -3.384  1.00  0.00     0.006 A 
ATOM     16  C   UNL     1      -3.845   0.755  -2.575  1.00  0.00     0.021 A 
ATOM     17  C   UNL     1      -2.467  -0.671  -3.955  1.00  0.00     0.021 A 
ATOM     18  C   UNL     1      -3.729  -0.235  -3.551  1.00  0.00     0.041 A 
ATOM     19  Cl  UNL     1      -5.142  -0.921  -4.255  1.00  0.00    -0.084 Cl
ENDBRANCH   1  13
TORSDOF 3
ENDMDL
MODEL 3
REMARK VINA RESULT:    -5.874      2.736      3.986
REMARK INTER + INTRA:          -7.497
REMARK INTER:                  -7.171
REMARK INTRA:                  -0.326
REMARK UNBOUND:                -0.594
REMARK SMILES Clc1ccc(C(c2ccc(Cl)cc2)C(Cl)(Cl)Cl)cc1
REMARK SMILES IDX 6 1 14 2 15 3 16 4 17 5 5 6 4 7 18 8 3 9 19 10 2 11 1 12
REMARK SMILES IDX 7 13 8 14 13 15 9 16 12 17 10 18 11 19
REMARK H PARENT
REMARK Flexibility Score: inf
ROOT
ATOM      1  C   UNL     1      -4.714   4.176  -1.691  1.00  0.00     0.101 C 
ENDROOT
BRANCH   1   2
ATOM      2  C   UNL     1      -5.645   3.338  -2.664  1.00  0.00     0.201 C 
ATOM      3  Cl  UNL     1      -5.421   3.710  -4.403  1.00  0.00    -0.083 Cl
ATOM      4  Cl  UNL     1      -7.383   3.696  -2.286  1.00  0.00    -0.083 Cl
ATOM      5  Cl  UNL     1      -5.445   1.559  -2.435  1.00  0.00    -0.083 Cl
ENDBRANCH   1   2
BRANCH   1   6
ATOM      6  C   UNL     1      -4.551   5.618  -2.037  1.00  0.00    -0.036 A 
ATOM      7  C   UNL     1      -5.564   6.289  -2.723  1.00  0.00     0.006 A 
ATOM      8  C   UNL     1      -3.386   6.295  -1.677  1.00  0.00     0.006 A 
ATOM      9  C   UNL     1      -5.412   7.637  -3.047  1.00  0.00     0.021 A 
ATOM     10  C   UNL     1      -3.234   7.643  -2.000  1.00  0.00     0.021 A 
ATOM     11  C   UNL     1      -4.247   8.314  -2.686  1.00  0.00     0.041 A 
ATOM     12  Cl  UNL     1      -4.059   9.978  -3.087  1.00  0.00    -0.084 Cl
ENDBRANCH   1   6
BRANCH   1  13
ATOM     13  C   UNL     1      -3.381   3.508  -1.268  1.00  0.00    -0.036 A 
ATOM     14  C   UNL     1      -2.444   3.280  -2.237  1.00  0.00     0.006 A 
ATOM     15  C   UNL     1      -3.220   3.182   0.049  1.00  0.00     0.006 A 
ATOM     16  C   UNL     1      -1.246   2.677  -1.856  1.00  0.00     0.021 A 
ATOM     17  C   UNL     1      -2.022   2.578   0.430  1.00  0.00     0.021 A 
ATOM     18  C   UNL     1      -1.034   2.326  -0.522  1.00  0.00     0.041 A 
ATOM     19  Cl  UNL     1       0.444   1.580  -0.052  1.00  0.00    -0.084 Cl
ENDBRANCH   1  13
TORSDOF 3
ENDMDL
MODEL 4
REMARK VINA RESULT:    -5.872      2.613      4.077
REMARK INTER + INTRA:          -7.496
REMARK INTER:                  -7.102
REMARK INTRA:                  -0.394
REMARK UNBOUND:                -0.594
REMARK SMILES Clc1ccc(C(c2ccc(Cl)cc2)C(Cl)(Cl)Cl)cc1
REMARK SMILES IDX 6 1 14 2 15 3 16 4 17 5 5 6 4 7 18 8 3 9 19 10 2 11 1 12
REMARK SMILES IDX 7 13 8 14 13 15 9 16 12 17 10 18 11 19
REMARK H PARENT
REMARK Flexibility Score: inf
ROOT
ATOM      1  C   UNL     1      -4.518   4.022  -1.613  1.00  0.00     0.101 C 
ENDROOT
BRANCH   1   2
ATOM      2  C   UNL     1      -5.454   3.149  -2.549  1.00  0.00     0.201 C 
ATOM      3  Cl  UNL     1      -7.209   3.378  -2.257  1.00  0.00    -0.083 Cl
ATOM      4  Cl  UNL     1      -5.117   1.389  -2.263  1.00  0.00    -0.083 Cl
ATOM      5  Cl  UNL     1      -5.130   3.437  -4.300  1.00  0.00    -0.083 Cl
ENDBRANCH   1   2
BRANCH   1   6
ATOM      6  C   UNL     1      -4.431   5.470  -1.957  1.00  0.00    -0.036 A 
ATOM      7  C   UNL     1      -3.291   6.199  -1.622  1.00  0.00     0.006 A 
ATOM      8  C   UNL     1      -5.492   6.097  -2.613  1.00  0.00     0.006 A 
ATOM      9  C   UNL     1      -3.210   7.555  -1.942  1.00  0.00     0.021 A 
ATOM     10  C   UNL     1      -5.411   7.451  -2.934  1.00  0.00     0.021 A 
ATOM     11  C   UNL     1      -4.270   8.180  -2.599  1.00  0.00     0.041 A 
ATOM     12  Cl  UNL     1      -4.171   9.853  -2.994  1.00  0.00    -0.084 Cl
ENDBRANCH   1   6
BRANCH   1  13
ATOM     13  C   UNL     1      -3.142   3.408  -1.252  1.00  0.00    -0.036 A 
ATOM     14  C   UNL     1      -2.931   3.025   0.043  1.00  0.00     0.006 A 
ATOM     15  C   UNL     1      -2.215   3.285  -2.250  1.00  0.00     0.006 A 
ATOM     16  C   UNL     1      -1.692   2.474   0.367  1.00  0.00     0.021 A 
ATOM     17  C   UNL     1      -0.975   2.735  -1.925  1.00  0.00     0.021 A 
ATOM     18  C   UNL     1      -0.714   2.328  -0.617  1.00  0.00     0.041 A 
ATOM     19  Cl  UNL     1       0.816   1.649  -0.216  1.00  0.00    -0.084 Cl
ENDBRANCH   1  13
TORSDOF 3
ENDMDL
MODEL 5
REMARK VINA RESULT:    -5.803      4.205      5.788
REMARK INTER + INTRA:          -7.415
REMARK INTER:                  -6.803
REMARK INTRA:                  -0.612
REMARK UNBOUND:                -0.594
REMARK SMILES Clc1ccc(C(c2ccc(Cl)cc2)C(Cl)(Cl)Cl)cc1
REMARK SMILES IDX 6 1 14 2 15 3 16 4 17 5 5 6 4 7 18 8 3 9 19 10 2 11 1 12
REMARK SMILES IDX 7 13 8 14 13 15 9 16 12 17 10 18 11 19
REMARK H PARENT
REMARK Flexibility Score: inf
ROOT
ATOM      1  C   UNL     1      -4.583   4.519  -2.458  1.00  0.00     0.101 C 
ENDROOT
BRANCH   1   2
ATOM      2  C   UNL     1      -5.908   5.245  -2.940  1.00  0.00     0.201 C 
ATOM      3  Cl  UNL     1      -5.886   7.028  -2.743  1.00  0.00    -0.083 Cl
ATOM      4  Cl  UNL     1      -7.313   4.642  -1.963  1.00  0.00    -0.083 Cl
ATOM      5  Cl  UNL     1      -6.305   4.871  -4.661  1.00  0.00    -0.083 Cl
ENDBRANCH   1   2
BRANCH   1   6
ATOM      6  C   UNL     1      -3.350   5.358  -2.461  1.00  0.00    -0.036 A 
ATOM      7  C   UNL     1      -2.498   5.348  -1.356  1.00  0.00     0.006 A 
ATOM      8  C   UNL     1      -3.049   6.154  -3.567  1.00  0.00     0.006 A 
ATOM      9  C   UNL     1      -1.345   6.133  -1.358  1.00  0.00     0.021 A 
ATOM     10  C   UNL     1      -1.896   6.938  -3.568  1.00  0.00     0.021 A 
ATOM     11  C   UNL     1      -1.044   6.928  -2.464  1.00  0.00     0.041 A 
ATOM     12  Cl  UNL     1       0.378   7.898  -2.466  1.00  0.00    -0.084 Cl
ENDBRANCH   1   6
BRANCH   1  13
ATOM     13  C   UNL     1      -4.339   3.093  -3.013  1.00  0.00    -0.036 A 
ATOM     14  C   UNL     1      -5.080   2.069  -2.494  1.00  0.00     0.006 A 
ATOM     15  C   UNL     1      -3.396   2.940  -3.990  1.00  0.00     0.006 A 
ATOM     16  C   UNL     1      -4.859   0.786  -2.993  1.00  0.00     0.021 A 
ATOM     17  C   UNL     1      -3.174   1.656  -4.489  1.00  0.00     0.021 A 
ATOM     18  C   UNL     1      -3.906   0.579  -3.990  1.00  0.00     0.041 A 
ATOM     19  Cl  UNL     1      -3.633  -1.005  -4.606  1.00  0.00    -0.084 Cl
ENDBRANCH   1  13
TORSDOF 3
ENDMDL
