MODEL 1
REMARK VINA RESULT:    -6.549      0.000      0.000
REMARK INTER + INTRA:         -12.329
REMARK INTER:                  -9.230
REMARK INTRA:                  -3.099
REMARK UNBOUND:                -3.099
REMARK SMILES CC1(C)[C@H](C=C(Cl)Cl)[C@H]1C(=O)OCc1cccc(Oc2ccccc2)c1
REMARK SMILES IDX 13 1 12 2 10 3 11 4 9 5 4 6 2 7 1 8 3 9 5 10 7 11 6 12 8 13
REMARK SMILES IDX 14 14 26 15 15 16 18 17 16 18 17 19 19 20 20 21 21 22 25 23
REMARK SMILES IDX 22 24 24 25 23 26
REMARK H PARENT
REMARK Flexibility Score: inf
ROOT
ATOM      1  C   UNL     1      -0.543   6.943  -3.168  1.00  0.00     0.268 C 
ENDROOT
BRANCH   1   2
ATOM      2  O   UNL     1      -0.338   5.554  -2.941  1.00  0.00    -0.461 OA
BRANCH   2   3
ATOM      3  C   UNL     1       0.015   5.205  -1.670  1.00  0.00     0.310 C 
ATOM      4  O   UNL     1       0.711   5.855  -0.902  1.00  0.00    -0.252 OA
BRANCH   3   5
ATOM      5  C   UNL     1      -0.556   3.891  -1.278  1.00  0.00     0.113 C 
ATOM      6  C   UNL     1      -1.744   3.382  -2.031  1.00  0.00     0.035 C 
ATOM      7  C   UNL     1      -1.890   3.825  -0.605  1.00  0.00    -0.014 C 
ATOM      8  C   UNL     1      -2.145   2.771   0.419  1.00  0.00     0.012 C 
ATOM      9  C   UNL     1      -2.561   5.121  -0.297  1.00  0.00     0.012 C 
BRANCH   6  10
ATOM     10  C   UNL     1      -1.789   1.967  -2.371  1.00  0.00     0.011 C 
ATOM     11  Cl  UNL     1       0.243   2.095  -4.137  1.00  0.00    -0.071 Cl
ATOM     12  C   UNL     1      -1.007   1.309  -3.241  1.00  0.00     0.103 C 
ATOM     13  Cl  UNL     1      -1.227  -0.386  -3.506  1.00  0.00    -0.071 Cl
ENDBRANCH   6  10
ENDBRANCH   3   5
ENDBRANCH   2   3
ENDBRANCH   1   2
BRANCH   1  14
ATOM     14  C   UNL     1      -1.995   7.257  -3.041  1.00  0.00    -0.007 A 
ATOM     15  C   UNL     1      -2.942   6.433  -3.650  1.00  0.00     0.054 A 
ATOM     16  C   UNL     1      -2.406   8.374  -2.314  1.00  0.00     0.007 A 
ATOM     17  C   UNL     1      -4.300   6.728  -3.531  1.00  0.00     0.127 A 
ATOM     18  C   UNL     1      -3.764   8.668  -2.196  1.00  0.00     0.004 A 
ATOM     19  C   UNL     1      -4.711   7.844  -2.804  1.00  0.00     0.047 A 
BRANCH  17  20
ATOM     20  O   UNL     1      -5.225   5.924  -4.125  1.00  0.00    -0.457 OA
BRANCH  20  21
ATOM     21  C   UNL     1      -5.270   4.597  -3.735  1.00  0.00     0.127 A 
ATOM     22  C   UNL     1      -5.597   4.290  -2.426  1.00  0.00     0.047 A 
ATOM     23  C   UNL     1      -4.988   3.611  -4.663  1.00  0.00     0.047 A 
ATOM     24  C   UNL     1      -5.643   2.953  -2.033  1.00  0.00     0.004 A 
ATOM     25  C   UNL     1      -5.034   2.273  -4.269  1.00  0.00     0.004 A 
ATOM     26  C   UNL     1      -5.362   1.944  -2.955  1.00  0.00     0.000 A 
ENDBRANCH  20  21
ENDBRANCH  17  20
ENDBRANCH   1  14
TORSDOF 7
ENDMDL
MODEL 2
REMARK VINA RESULT:    -6.224      2.356      4.659
REMARK INTER + INTRA:         -11.871
REMARK INTER:                  -9.785
REMARK INTRA:                  -2.086
REMARK UNBOUND:                -3.099
REMARK SMILES CC1(C)[C@H](C=C(Cl)Cl)[C@H]1C(=O)OCc1cccc(Oc2ccccc2)c1
REMARK SMILES IDX 13 1 12 2 10 3 11 4 9 5 4 6 2 7 1 8 3 9 5 10 7 11 6 12 8 13
REMARK SMILES IDX 14 14 26 15 15 16 18 17 16 18 17 19 19 20 20 21 21 22 25 23
REMARK SMILES IDX 22 24 24 25 23 26
REMARK H PARENT
REMARK Flexibility Score: inf
ROOT
ATOM      1  C   UNL     1      -4.799   1.739  -3.720  1.00  0.00     0.268 C 
ENDROOT
BRANCH   1   2
ATOM      2  O   UNL     1      -3.384   1.786  -3.848  1.00  0.00    -0.461 OA
BRANCH   2   3
ATOM      3  C   UNL     1      -2.677   1.186  -2.846  1.00  0.00     0.310 C 
ATOM      4  O   UNL     1      -2.847   0.057  -2.409  1.00  0.00    -0.252 OA
BRANCH   3   5
ATOM      5  C   UNL     1      -1.621   2.078  -2.304  1.00  0.00     0.113 C 
ATOM      6  C   UNL     1      -0.955   1.692  -1.021  1.00  0.00     0.035 C 
ATOM      7  C   UNL     1      -1.877   2.875  -1.065  1.00  0.00    -0.014 C 
ATOM      8  C   UNL     1      -1.264   4.228  -0.921  1.00  0.00     0.012 C 
ATOM      9  C   UNL     1      -3.238   2.778  -0.463  1.00  0.00     0.012 C 
BRANCH   6  10
ATOM     10  C   UNL     1       0.484   1.881  -0.907  1.00  0.00     0.011 C 
ATOM     11  Cl  UNL     1       0.841  -0.148   0.829  1.00  0.00    -0.071 Cl
ATOM     12  C   UNL     1       1.346   1.173  -0.162  1.00  0.00     0.103 C 
ATOM     13  Cl  UNL     1       3.030   1.565  -0.163  1.00  0.00    -0.071 Cl
ENDBRANCH   6  10
ENDBRANCH   3   5
ENDBRANCH   2   3
ENDBRANCH   1   2
BRANCH   1  14
ATOM     14  C   UNL     1      -5.307   3.085  -3.326  1.00  0.00    -0.007 A 
ATOM     15  C   UNL     1      -4.716   4.234  -3.853  1.00  0.00     0.054 A 
ATOM     16  C   UNL     1      -6.373   3.194  -2.433  1.00  0.00     0.007 A 
ATOM     17  C   UNL     1      -5.192   5.492  -3.485  1.00  0.00     0.127 A 
ATOM     18  C   UNL     1      -6.848   4.453  -2.065  1.00  0.00     0.004 A 
ATOM     19  C   UNL     1      -6.257   5.602  -2.592  1.00  0.00     0.047 A 
BRANCH  17  20
ATOM     20  O   UNL     1      -4.616   6.614  -3.998  1.00  0.00    -0.457 OA
BRANCH  20  21
ATOM     21  C   UNL     1      -3.369   6.975  -3.519  1.00  0.00     0.127 A 
ATOM     22  C   UNL     1      -2.259   6.796  -4.327  1.00  0.00     0.047 A 
ATOM     23  C   UNL     1      -3.262   7.504  -2.246  1.00  0.00     0.047 A 
ATOM     24  C   UNL     1      -1.003   7.159  -3.844  1.00  0.00     0.004 A 
ATOM     25  C   UNL     1      -2.004   7.868  -1.764  1.00  0.00     0.004 A 
ATOM     26  C   UNL     1      -0.875   7.696  -2.564  1.00  0.00     0.000 A 
ENDBRANCH  20  21
ENDBRANCH  17  20
ENDBRANCH   1  14
TORSDOF 7
ENDMDL
MODEL 3
REMARK VINA RESULT:    -6.205      2.854      5.960
REMARK INTER + INTRA:         -11.844
REMARK INTER:                  -8.892
REMARK INTRA:                  -2.952
REMARK UNBOUND:                -3.099
REMARK SMILES CC1(C)[C@H](C=C(Cl)Cl)[C@H]1C(=O)OCc1cccc(Oc2ccccc2)c1
REMARK SMILES IDX 13 1 12 2 10 3 11 4 9 5 4 6 2 7 1 8 3 9 5 10 7 11 6 12 8 13
REMARK SMILES IDX 14 14 26 15 15 16 18 17 16 18 17 19 19 20 20 21 21 22 25 23
REMARK SMILES IDX 22 24 24 25 23 26
REMARK H PARENT
REMARK Flexibility Score: inf
ROOT
ATOM      1  C   UNL     1      -5.144   3.093  -4.583  1.00  0.00     0.268 C 
ENDROOT
BRANCH   1   2
ATOM      2  O   UNL     1      -4.355   4.073  -3.919  1.00  0.00    -0.461 OA
BRANCH   2   3
ATOM      3  C   UNL     1      -4.824   4.493  -2.709  1.00  0.00     0.310 C 
ATOM      4  O   UNL     1      -5.984   4.458  -2.324  1.00  0.00    -0.252 OA
BRANCH   3   5
ATOM      5  C   UNL     1      -3.736   5.025  -1.849  1.00  0.00     0.113 C 
ATOM      6  C   UNL     1      -2.326   4.651  -2.176  1.00  0.00     0.035 C 
ATOM      7  C   UNL     1      -2.982   4.107  -0.941  1.00  0.00    -0.014 C 
ATOM      8  C   UNL     1      -2.493   4.614   0.375  1.00  0.00     0.012 C 
ATOM      9  C   UNL     1      -3.418   2.682  -0.899  1.00  0.00     0.012 C 
BRANCH   6  10
ATOM     10  C   UNL     1      -1.298   5.678  -2.075  1.00  0.00     0.011 C 
ATOM     11  Cl  UNL     1      -2.141   7.053  -4.233  1.00  0.00    -0.071 Cl
ATOM     12  C   UNL     1      -1.117   6.737  -2.879  1.00  0.00     0.103 C 
ATOM     13  Cl  UNL     1       0.176   7.847  -2.585  1.00  0.00    -0.071 Cl
ENDBRANCH   6  10
ENDBRANCH   3   5
ENDBRANCH   2   3
ENDBRANCH   1   2
BRANCH   1  14
ATOM     14  C   UNL     1      -4.474   1.765  -4.481  1.00  0.00    -0.007 A 
ATOM     15  C   UNL     1      -3.089   1.691  -4.339  1.00  0.00     0.054 A 
ATOM     16  C   UNL     1      -5.234   0.596  -4.527  1.00  0.00     0.007 A 
ATOM     17  C   UNL     1      -2.463   0.448  -4.243  1.00  0.00     0.127 A 
ATOM     18  C   UNL     1      -4.609  -0.647  -4.432  1.00  0.00     0.004 A 
ATOM     19  C   UNL     1      -3.223  -0.720  -4.289  1.00  0.00     0.047 A 
BRANCH  17  20
ATOM     20  O   UNL     1      -1.111   0.376  -4.104  1.00  0.00    -0.457 OA
BRANCH  20  21
ATOM     21  C   UNL     1      -0.555   0.878  -2.940  1.00  0.00     0.127 A 
ATOM     22  C   UNL     1      -0.717   0.176  -1.758  1.00  0.00     0.047 A 
ATOM     23  C   UNL     1       0.148   2.068  -2.987  1.00  0.00     0.047 A 
ATOM     24  C   UNL     1      -0.158   0.682  -0.586  1.00  0.00     0.004 A 
ATOM     25  C   UNL     1       0.708   2.573  -1.814  1.00  0.00     0.004 A 
ATOM     26  C   UNL     1       0.556   1.880  -0.613  1.00  0.00     0.000 A 
ENDBRANCH  20  21
ENDBRANCH  17  20
ENDBRANCH   1  14
TORSDOF 7
ENDMDL
MODEL 4
REMARK VINA RESULT:    -6.184      1.903      2.182
REMARK INTER + INTRA:         -11.814
REMARK INTER:                  -9.851
REMARK INTRA:                  -1.964
REMARK UNBOUND:                -3.099
REMARK SMILES CC1(C)[C@H](C=C(Cl)Cl)[C@H]1C(=O)OCc1cccc(Oc2ccccc2)c1
REMARK SMILES IDX 13 1 12 2 10 3 11 4 9 5 4 6 2 7 1 8 3 9 5 10 7 11 6 12 8 13
REMARK SMILES IDX 14 14 26 15 15 16 18 17 16 18 17 19 19 20 20 21 21 22 25 23
REMARK SMILES IDX 22 24 24 25 23 26
REMARK H PARENT
REMARK Flexibility Score: inf
ROOT
ATOM      1  C   UNL     1      -0.702   6.505  -1.861  1.00  0.00     0.268 C 
ENDROOT
BRANCH   1   2
ATOM      2  O   UNL     1      -0.828   5.395  -0.981  1.00  0.00    -0.461 OA
BRANCH   2   3
ATOM      3  C   UNL     1      -0.031   4.323  -1.259  1.00  0.00     0.310 C 
ATOM      4  O   UNL     1       1.118   4.358  -1.676  1.00  0.00    -0.252 OA
BRANCH   3   5
ATOM      5  C   UNL     1      -0.723   3.036  -0.993  1.00  0.00     0.113 C 
ATOM      6  C   UNL     1      -0.111   1.779  -1.525  1.00  0.00     0.035 C 
ATOM      7  C   UNL     1      -1.391   2.300  -2.110  1.00  0.00    -0.014 C 
ATOM      8  C   UNL     1      -2.636   1.524  -1.838  1.00  0.00     0.012 C 
ATOM      9  C   UNL     1      -1.382   2.949  -3.453  1.00  0.00     0.012 C 
BRANCH   6  10
ATOM     10  C   UNL     1      -0.117   0.597  -0.675  1.00  0.00     0.011 C 
ATOM     11  Cl  UNL     1       2.160   1.237   0.616  1.00  0.00    -0.071 Cl
ATOM     12  C   UNL     1       0.782   0.258   0.262  1.00  0.00     0.103 C 
ATOM     13  Cl  UNL     1       0.593  -1.203   1.167  1.00  0.00    -0.071 Cl
ENDBRANCH   6  10
ENDBRANCH   3   5
ENDBRANCH   2   3
ENDBRANCH   1   2
BRANCH   1  14
ATOM     14  C   UNL     1      -2.058   7.023  -2.205  1.00  0.00    -0.007 A 
ATOM     15  C   UNL     1      -2.894   6.284  -3.042  1.00  0.00     0.054 A 
ATOM     16  C   UNL     1      -2.489   8.244  -1.688  1.00  0.00     0.007 A 
ATOM     17  C   UNL     1      -4.162   6.769  -3.363  1.00  0.00     0.127 A 
ATOM     18  C   UNL     1      -3.757   8.728  -2.010  1.00  0.00     0.004 A 
ATOM     19  C   UNL     1      -4.593   7.990  -2.847  1.00  0.00     0.047 A 
BRANCH  17  20
ATOM     20  O   UNL     1      -4.979   6.048  -4.180  1.00  0.00    -0.457 OA
BRANCH  20  21
ATOM     21  C   UNL     1      -5.243   4.735  -3.833  1.00  0.00     0.127 A 
ATOM     22  C   UNL     1      -5.933   4.474  -2.661  1.00  0.00     0.047 A 
ATOM     23  C   UNL     1      -4.811   3.717  -4.663  1.00  0.00     0.047 A 
ATOM     24  C   UNL     1      -6.199   3.151  -2.311  1.00  0.00     0.004 A 
ATOM     25  C   UNL     1      -5.078   2.394  -4.311  1.00  0.00     0.004 A 
ATOM     26  C   UNL     1      -5.772   2.111  -3.135  1.00  0.00     0.000 A 
ENDBRANCH  20  21
ENDBRANCH  17  20
ENDBRANCH   1  14
TORSDOF 7
ENDMDL
MODEL 5
REMARK VINA RESULT:    -6.090      2.311      4.720
REMARK INTER + INTRA:         -11.682
REMARK INTER:                  -8.700
REMARK INTRA:                  -2.982
REMARK UNBOUND:                -3.099
REMARK SMILES CC1(C)[C@H](C=C(Cl)Cl)[C@H]1C(=O)OCc1cccc(Oc2ccccc2)c1
REMARK SMILES IDX 13 1 12 2 10 3 11 4 9 5 4 6 2 7 1 8 3 9 5 10 7 11 6 12 8 13
REMARK SMILES IDX 14 14 26 15 15 16 18 17 16 18 17 19 19 20 20 21 21 22 25 23
REMARK SMILES IDX 22 24 24 25 23 26
REMARK H PARENT
REMARK Flexibility Score: inf
ROOT
ATOM      1  C   UNL     1      -5.311   4.060  -2.058  1.00  0.00     0.268 C 
ENDROOT
BRANCH   1   2
ATOM      2  O   UNL     1      -4.338   3.100  -1.665  1.00  0.00    -0.461 OA
BRANCH   2   3
ATOM      3  C   UNL     1      -4.274   1.972  -2.429  1.00  0.00     0.310 C 
ATOM      4  O   UNL     1      -5.197   1.451  -3.039  1.00  0.00    -0.252 OA
BRANCH   3   5
ATOM      5  C   UNL     1      -2.904   1.400  -2.457  1.00  0.00     0.113 C 
ATOM      6  C   UNL     1      -1.764   2.269  -2.030  1.00  0.00     0.035 C 
ATOM      7  C   UNL     1      -1.914   1.877  -3.471  1.00  0.00    -0.014 C 
ATOM      8  C   UNL     1      -0.915   0.920  -4.029  1.00  0.00     0.012 C 
ATOM      9  C   UNL     1      -2.390   2.880  -4.467  1.00  0.00     0.012 C 
BRANCH   6  10
ATOM     10  C   UNL     1      -0.716   1.678  -1.210  1.00  0.00     0.011 C 
ATOM     11  Cl  UNL     1      -1.870   2.331   1.135  1.00  0.00    -0.071 Cl
ATOM     12  C   UNL     1      -0.648   1.641   0.129  1.00  0.00     0.103 C 
ATOM     13  Cl  UNL     1       0.696   0.887   0.916  1.00  0.00    -0.071 Cl
ENDBRANCH   6  10
ENDBRANCH   3   5
ENDBRANCH   2   3
ENDBRANCH   1   2
BRANCH   1  14
ATOM     14  C   UNL     1      -4.650   5.379  -2.271  1.00  0.00    -0.007 A 
ATOM     15  C   UNL     1      -3.302   5.543  -1.952  1.00  0.00     0.054 A 
ATOM     16  C   UNL     1      -5.379   6.448  -2.791  1.00  0.00     0.007 A 
ATOM     17  C   UNL     1      -2.684   6.777  -2.152  1.00  0.00     0.127 A 
ATOM     18  C   UNL     1      -4.760   7.682  -2.991  1.00  0.00     0.004 A 
ATOM     19  C   UNL     1      -3.412   7.846  -2.671  1.00  0.00     0.047 A 
BRANCH  17  20
ATOM     20  O   UNL     1      -1.368   6.937  -1.840  1.00  0.00    -0.457 OA
BRANCH  20  21
ATOM     21  C   UNL     1      -0.458   6.073  -2.423  1.00  0.00     0.127 A 
ATOM     22  C   UNL     1       0.340   5.287  -1.610  1.00  0.00     0.047 A 
ATOM     23  C   UNL     1      -0.368   6.017  -3.802  1.00  0.00     0.047 A 
ATOM     24  C   UNL     1       1.257   4.416  -2.198  1.00  0.00     0.004 A 
ATOM     25  C   UNL     1       0.550   5.145  -4.389  1.00  0.00     0.004 A 
ATOM     26  C   UNL     1       1.362   4.345  -3.586  1.00  0.00     0.000 A 
ENDBRANCH  20  21
ENDBRANCH  17  20
ENDBRANCH   1  14
TORSDOF 7
ENDMDL
