MODEL 1
REMARK VINA RESULT:    -6.445      0.000      0.000
REMARK INTER + INTRA:         -12.319
REMARK INTER:                  -9.082
REMARK INTRA:                  -3.237
REMARK UNBOUND:                -3.237
REMARK SMILES CC1(C)[C@H](C=C(Cl)Cl)[C@H]1C(=O)OCc1cccc(Oc2ccccc2)c1
REMARK SMILES IDX 13 1 12 2 10 3 11 4 9 5 4 6 2 7 1 8 3 9 5 10 7 11 6 12 8 13
REMARK SMILES IDX 14 14 26 15 15 16 18 17 16 18 17 19 19 20 20 21 21 22 25 23
REMARK SMILES IDX 22 24 24 25 23 26
REMARK H PARENT
REMARK Flexibility Score: inf
ROOT
ATOM      1  C   UNL     1      -0.182   6.610  -3.423  1.00  0.00     0.268 C 
ENDROOT
BRANCH   1   2
ATOM      2  O   UNL     1      -0.004   5.252  -3.041  1.00  0.00    -0.461 OA
BRANCH   2   3
ATOM      3  C   UNL     1       0.151   5.026  -1.704  1.00  0.00     0.310 C 
ATOM      4  O   UNL     1       0.724   5.753  -0.904  1.00  0.00    -0.252 OA
BRANCH   3   5
ATOM      5  C   UNL     1      -0.476   3.748  -1.282  1.00  0.00     0.113 C 
ATOM      6  C   UNL     1      -1.673   3.263  -2.037  1.00  0.00     0.035 C 
ATOM      7  C   UNL     1      -1.820   3.753  -0.626  1.00  0.00    -0.014 C 
ATOM      8  C   UNL     1      -2.128   2.740   0.424  1.00  0.00     0.012 C 
ATOM      9  C   UNL     1      -2.444   5.083  -0.364  1.00  0.00     0.012 C 
BRANCH   6  10
ATOM     10  C   UNL     1      -1.769   1.841  -2.337  1.00  0.00     0.011 C 
ATOM     11  Cl  UNL     1      -0.120   1.948  -4.464  1.00  0.00    -0.071 Cl
ATOM     12  C   UNL     1      -1.164   1.171  -3.330  1.00  0.00     0.103 C 
ATOM     13  Cl  UNL     1      -1.415  -0.529  -3.516  1.00  0.00    -0.071 Cl
ENDBRANCH   6  10
ENDBRANCH   3   5
ENDBRANCH   2   3
ENDBRANCH   1   2
BRANCH   1  14
ATOM     14  C   UNL     1      -1.606   7.001  -3.217  1.00  0.00    -0.007 A 
ATOM     15  C   UNL     1      -2.627   6.240  -3.784  1.00  0.00     0.054 A 
ATOM     16  C   UNL     1      -1.916   8.128  -2.456  1.00  0.00     0.007 A 
ATOM     17  C   UNL     1      -3.959   6.606  -3.591  1.00  0.00     0.127 A 
ATOM     18  C   UNL     1      -3.248   8.495  -2.263  1.00  0.00     0.004 A 
ATOM     19  C   UNL     1      -4.269   7.733  -2.830  1.00  0.00     0.047 A 
BRANCH  17  20
ATOM     20  O   UNL     1      -4.956   5.863  -4.145  1.00  0.00    -0.457 OA
BRANCH  20  21
ATOM     21  C   UNL     1      -5.078   4.545  -3.740  1.00  0.00     0.127 A 
ATOM     22  C   UNL     1      -5.398   4.272  -2.421  1.00  0.00     0.047 A 
ATOM     23  C   UNL     1      -4.879   3.535  -4.663  1.00  0.00     0.047 A 
ATOM     24  C   UNL     1      -5.520   2.944  -2.014  1.00  0.00     0.004 A 
ATOM     25  C   UNL     1      -5.002   2.206  -4.254  1.00  0.00     0.004 A 
ATOM     26  C   UNL     1      -5.324   1.911  -2.929  1.00  0.00     0.000 A 
ENDBRANCH  20  21
ENDBRANCH  17  20
ENDBRANCH   1  14
TORSDOF 7
ENDMDL
MODEL 2
REMARK VINA RESULT:    -6.345      3.381      5.378
REMARK INTER + INTRA:         -12.179
REMARK INTER:                 -10.063
REMARK INTRA:                  -2.116
REMARK UNBOUND:                -3.237
REMARK SMILES CC1(C)[C@H](C=C(Cl)Cl)[C@H]1C(=O)OCc1cccc(Oc2ccccc2)c1
REMARK SMILES IDX 13 1 12 2 10 3 11 4 9 5 4 6 2 7 1 8 3 9 5 10 7 11 6 12 8 13
REMARK SMILES IDX 14 14 26 15 15 16 18 17 16 18 17 19 19 20 20 21 21 22 25 23
REMARK SMILES IDX 22 24 24 25 23 26
REMARK H PARENT
REMARK Flexibility Score: inf
ROOT
ATOM      1  C   UNL     1      -2.733   3.722   0.200  1.00  0.00     0.268 C 
ENDROOT
BRANCH   1   2
ATOM      2  O   UNL     1      -2.282   5.037  -0.098  1.00  0.00    -0.461 OA
BRANCH   2   3
ATOM      3  C   UNL     1      -1.181   5.120  -0.901  1.00  0.00     0.310 C 
ATOM      4  O   UNL     1      -0.199   4.392  -0.868  1.00  0.00    -0.252 OA
BRANCH   3   5
ATOM      5  C   UNL     1      -1.290   6.235  -1.875  1.00  0.00     0.113 C 
ATOM      6  C   UNL     1      -2.644   6.586  -2.404  1.00  0.00     0.035 C 
ATOM      7  C   UNL     1      -1.626   5.952  -3.305  1.00  0.00    -0.014 C 
ATOM      8  C   UNL     1      -1.037   6.802  -4.380  1.00  0.00     0.012 C 
ATOM      9  C   UNL     1      -1.772   4.520  -3.698  1.00  0.00     0.012 C 
BRANCH   6  10
ATOM     10  C   UNL     1      -2.984   7.994  -2.551  1.00  0.00     0.011 C 
ATOM     11  Cl  UNL     1      -5.623   7.558  -2.871  1.00  0.00    -0.071 Cl
ATOM     12  C   UNL     1      -4.199   8.527  -2.751  1.00  0.00     0.103 C 
ATOM     13  Cl  UNL     1      -4.389  10.239  -2.903  1.00  0.00    -0.071 Cl
ENDBRANCH   6  10
ENDBRANCH   3   5
ENDBRANCH   2   3
ENDBRANCH   1   2
BRANCH   1  14
ATOM     14  C   UNL     1      -3.702   3.281  -0.844  1.00  0.00    -0.007 A 
ATOM     15  C   UNL     1      -4.778   4.100  -1.186  1.00  0.00     0.054 A 
ATOM     16  C   UNL     1      -3.532   2.051  -1.479  1.00  0.00     0.007 A 
ATOM     17  C   UNL     1      -5.685   3.688  -2.163  1.00  0.00     0.127 A 
ATOM     18  C   UNL     1      -4.439   1.638  -2.455  1.00  0.00     0.004 A 
ATOM     19  C   UNL     1      -5.515   2.458  -2.797  1.00  0.00     0.047 A 
BRANCH  17  20
ATOM     20  O   UNL     1      -6.735   4.487  -2.497  1.00  0.00    -0.457 OA
BRANCH  20  21
ATOM     21  C   UNL     1      -7.797   4.558  -1.612  1.00  0.00     0.127 A 
ATOM     22  C   UNL     1      -8.129   5.781  -1.055  1.00  0.00     0.047 A 
ATOM     23  C   UNL     1      -8.500   3.407  -1.307  1.00  0.00     0.047 A 
ATOM     24  C   UNL     1      -9.198   5.853  -0.164  1.00  0.00     0.004 A 
ATOM     25  C   UNL     1      -9.571   3.480  -0.416  1.00  0.00     0.004 A 
ATOM     26  C   UNL     1      -9.920   4.704   0.155  1.00  0.00     0.000 A 
ENDBRANCH  20  21
ENDBRANCH  17  20
ENDBRANCH   1  14
TORSDOF 7
ENDMDL
MODEL 3
REMARK VINA RESULT:    -6.193      2.806      5.965
REMARK INTER + INTRA:         -11.964
REMARK INTER:                  -9.003
REMARK INTRA:                  -2.961
REMARK UNBOUND:                -3.237
REMARK SMILES CC1(C)[C@H](C=C(Cl)Cl)[C@H]1C(=O)OCc1cccc(Oc2ccccc2)c1
REMARK SMILES IDX 13 1 12 2 10 3 11 4 9 5 4 6 2 7 1 8 3 9 5 10 7 11 6 12 8 13
REMARK SMILES IDX 14 14 26 15 15 16 18 17 16 18 17 19 19 20 20 21 21 22 25 23
REMARK SMILES IDX 22 24 24 25 23 26
REMARK H PARENT
REMARK Flexibility Score: inf
ROOT
ATOM      1  C   UNL     1      -5.139   2.947  -4.663  1.00  0.00     0.268 C 
ENDROOT
BRANCH   1   2
ATOM      2  O   UNL     1      -4.393   3.927  -3.952  1.00  0.00    -0.461 OA
BRANCH   2   3
ATOM      3  C   UNL     1      -4.871   4.256  -2.717  1.00  0.00     0.310 C 
ATOM      4  O   UNL     1      -6.023   4.133  -2.324  1.00  0.00    -0.252 OA
BRANCH   3   5
ATOM      5  C   UNL     1      -3.807   4.808  -1.841  1.00  0.00     0.113 C 
ATOM      6  C   UNL     1      -2.381   4.513  -2.186  1.00  0.00     0.035 C 
ATOM      7  C   UNL     1      -3.005   3.894  -0.969  1.00  0.00    -0.014 C 
ATOM      8  C   UNL     1      -2.535   4.374   0.363  1.00  0.00     0.012 C 
ATOM      9  C   UNL     1      -3.374   2.449  -0.979  1.00  0.00     0.012 C 
BRANCH   6  10
ATOM     10  C   UNL     1      -1.403   5.583  -2.049  1.00  0.00     0.011 C 
ATOM     11  Cl  UNL     1      -2.055   6.782  -4.372  1.00  0.00    -0.071 Cl
ATOM     12  C   UNL     1      -1.172   6.594  -2.901  1.00  0.00     0.103 C 
ATOM     13  Cl  UNL     1       0.048   7.770  -2.551  1.00  0.00    -0.071 Cl
ENDBRANCH   6  10
ENDBRANCH   3   5
ENDBRANCH   2   3
ENDBRANCH   1   2
BRANCH   1  14
ATOM     14  C   UNL     1      -4.475   1.619  -4.522  1.00  0.00    -0.007 A 
ATOM     15  C   UNL     1      -3.090   1.544  -4.374  1.00  0.00     0.054 A 
ATOM     16  C   UNL     1      -5.240   0.452  -4.536  1.00  0.00     0.007 A 
ATOM     17  C   UNL     1      -2.470   0.302  -4.241  1.00  0.00     0.127 A 
ATOM     18  C   UNL     1      -4.619  -0.790  -4.404  1.00  0.00     0.004 A 
ATOM     19  C   UNL     1      -3.234  -0.864  -4.256  1.00  0.00     0.047 A 
BRANCH  17  20
ATOM     20  O   UNL     1      -1.118   0.228  -4.097  1.00  0.00    -0.457 OA
BRANCH  20  21
ATOM     21  C   UNL     1      -0.567   0.716  -2.925  1.00  0.00     0.127 A 
ATOM     22  C   UNL     1      -0.671  -0.037  -1.768  1.00  0.00     0.047 A 
ATOM     23  C   UNL     1       0.071   1.942  -2.939  1.00  0.00     0.047 A 
ATOM     24  C   UNL     1      -0.116   0.454  -0.587  1.00  0.00     0.004 A 
ATOM     25  C   UNL     1       0.626   2.433  -1.756  1.00  0.00     0.004 A 
ATOM     26  C   UNL     1       0.533   1.688  -0.581  1.00  0.00     0.000 A 
ENDBRANCH  20  21
ENDBRANCH  17  20
ENDBRANCH   1  14
TORSDOF 7
ENDMDL
MODEL 4
REMARK VINA RESULT:    -6.142      2.373      4.613
REMARK INTER + INTRA:         -11.893
REMARK INTER:                  -9.797
REMARK INTRA:                  -2.096
REMARK UNBOUND:                -3.237
REMARK SMILES CC1(C)[C@H](C=C(Cl)Cl)[C@H]1C(=O)OCc1cccc(Oc2ccccc2)c1
REMARK SMILES IDX 13 1 12 2 10 3 11 4 9 5 4 6 2 7 1 8 3 9 5 10 7 11 6 12 8 13
REMARK SMILES IDX 14 14 26 15 15 16 18 17 16 18 17 19 19 20 20 21 21 22 25 23
REMARK SMILES IDX 22 24 24 25 23 26
REMARK H PARENT
REMARK Flexibility Score: inf
ROOT
ATOM      1  C   UNL     1      -4.775   1.688  -3.753  1.00  0.00     0.268 C 
ENDROOT
BRANCH   1   2
ATOM      2  O   UNL     1      -3.357   1.738  -3.859  1.00  0.00    -0.461 OA
BRANCH   2   3
ATOM      3  C   UNL     1      -2.664   1.145  -2.844  1.00  0.00     0.310 C 
ATOM      4  O   UNL     1      -2.837   0.017  -2.405  1.00  0.00    -0.252 OA
BRANCH   3   5
ATOM      5  C   UNL     1      -1.620   2.043  -2.289  1.00  0.00     0.113 C 
ATOM      6  C   UNL     1      -0.957   1.651  -1.006  1.00  0.00     0.035 C 
ATOM      7  C   UNL     1      -1.890   2.826  -1.044  1.00  0.00    -0.014 C 
ATOM      8  C   UNL     1      -1.291   4.183  -0.885  1.00  0.00     0.012 C 
ATOM      9  C   UNL     1      -3.253   2.709  -0.449  1.00  0.00     0.012 C 
BRANCH   6  10
ATOM     10  C   UNL     1       0.480   1.854  -0.883  1.00  0.00     0.011 C 
ATOM     11  Cl  UNL     1       0.843  -0.164   0.864  1.00  0.00    -0.071 Cl
ATOM     12  C   UNL     1       1.343   1.157  -0.129  1.00  0.00     0.103 C 
ATOM     13  Cl  UNL     1       3.024   1.564  -0.122  1.00  0.00    -0.071 Cl
ENDBRANCH   6  10
ENDBRANCH   3   5
ENDBRANCH   2   3
ENDBRANCH   1   2
BRANCH   1  14
ATOM     14  C   UNL     1      -5.288   3.021  -3.327  1.00  0.00    -0.007 A 
ATOM     15  C   UNL     1      -4.705   4.185  -3.826  1.00  0.00     0.054 A 
ATOM     16  C   UNL     1      -6.354   3.104  -2.430  1.00  0.00     0.007 A 
ATOM     17  C   UNL     1      -5.186   5.432  -3.428  1.00  0.00     0.127 A 
ATOM     18  C   UNL     1      -6.834   4.351  -2.031  1.00  0.00     0.004 A 
ATOM     19  C   UNL     1      -6.250   5.515  -2.531  1.00  0.00     0.047 A 
BRANCH  17  20
ATOM     20  O   UNL     1      -4.616   6.569  -3.915  1.00  0.00    -0.457 OA
BRANCH  20  21
ATOM     21  C   UNL     1      -3.396   6.955  -3.388  1.00  0.00     0.127 A 
ATOM     22  C   UNL     1      -3.349   7.463  -2.101  1.00  0.00     0.047 A 
ATOM     23  C   UNL     1      -2.256   6.825  -4.159  1.00  0.00     0.047 A 
ATOM     24  C   UNL     1      -2.121   7.852  -1.569  1.00  0.00     0.004 A 
ATOM     25  C   UNL     1      -1.027   7.215  -3.626  1.00  0.00     0.004 A 
ATOM     26  C   UNL     1      -0.960   7.728  -2.331  1.00  0.00     0.000 A 
ENDBRANCH  20  21
ENDBRANCH  17  20
ENDBRANCH   1  14
TORSDOF 7
ENDMDL
MODEL 5
REMARK VINA RESULT:    -6.104      2.563      5.008
REMARK INTER + INTRA:         -11.840
REMARK INTER:                  -9.833
REMARK INTRA:                  -2.007
REMARK UNBOUND:                -3.237
REMARK SMILES CC1(C)[C@H](C=C(Cl)Cl)[C@H]1C(=O)OCc1cccc(Oc2ccccc2)c1
REMARK SMILES IDX 13 1 12 2 10 3 11 4 9 5 4 6 2 7 1 8 3 9 5 10 7 11 6 12 8 13
REMARK SMILES IDX 14 14 26 15 15 16 18 17 16 18 17 19 19 20 20 21 21 22 25 23
REMARK SMILES IDX 22 24 24 25 23 26
REMARK H PARENT
REMARK Flexibility Score: inf
ROOT
ATOM      1  C   UNL     1       0.980   3.368  -1.551  1.00  0.00     0.268 C 
ENDROOT
BRANCH   1   2
ATOM      2  O   UNL     1       0.153   4.371  -2.129  1.00  0.00    -0.461 OA
BRANCH   2   3
ATOM      3  C   UNL     1       0.020   5.520  -1.406  1.00  0.00     0.310 C 
ATOM      4  O   UNL     1       0.910   6.120  -0.819  1.00  0.00    -0.252 OA
BRANCH   3   5
ATOM      5  C   UNL     1      -1.383   6.008  -1.395  1.00  0.00     0.113 C 
ATOM      6  C   UNL     1      -2.233   5.750  -2.598  1.00  0.00     0.035 C 
ATOM      7  C   UNL     1      -1.787   7.146  -2.277  1.00  0.00    -0.014 C 
ATOM      8  C   UNL     1      -2.827   8.107  -1.806  1.00  0.00     0.012 C 
ATOM      9  C   UNL     1      -0.716   7.789  -3.091  1.00  0.00     0.012 C 
BRANCH   6  10
ATOM     10  C   UNL     1      -3.618   5.352  -2.392  1.00  0.00     0.011 C 
ATOM     11  Cl  UNL     1      -3.006   3.087  -1.067  1.00  0.00    -0.071 Cl
ATOM     12  C   UNL     1      -4.070   4.255  -1.763  1.00  0.00     0.103 C 
ATOM     13  Cl  UNL     1      -5.769   3.963  -1.627  1.00  0.00    -0.071 Cl
ENDBRANCH   6  10
ENDBRANCH   3   5
ENDBRANCH   2   3
ENDBRANCH   1   2
BRANCH   1  14
ATOM     14  C   UNL     1       0.344   2.032  -1.738  1.00  0.00    -0.007 A 
ATOM     15  C   UNL     1      -0.272   1.717  -2.950  1.00  0.00     0.054 A 
ATOM     16  C   UNL     1       0.367   1.098  -0.703  1.00  0.00     0.007 A 
ATOM     17  C   UNL     1      -0.865   0.466  -3.124  1.00  0.00     0.127 A 
ATOM     18  C   UNL     1      -0.227  -0.151  -0.877  1.00  0.00     0.004 A 
ATOM     19  C   UNL     1      -0.843  -0.467  -2.089  1.00  0.00     0.047 A 
BRANCH  17  20
ATOM     20  O   UNL     1      -1.466   0.158  -4.306  1.00  0.00    -0.457 OA
BRANCH  20  21
ATOM     21  C   UNL     1      -2.848   0.222  -4.362  1.00  0.00     0.127 A 
ATOM     22  C   UNL     1      -3.471   1.452  -4.238  1.00  0.00     0.047 A 
ATOM     23  C   UNL     1      -3.570  -0.943  -4.540  1.00  0.00     0.047 A 
ATOM     24  C   UNL     1      -4.862   1.516  -4.294  1.00  0.00     0.004 A 
ATOM     25  C   UNL     1      -4.963  -0.877  -4.597  1.00  0.00     0.004 A 
ATOM     26  C   UNL     1      -5.609   0.353  -4.475  1.00  0.00     0.000 A 
ENDBRANCH  20  21
ENDBRANCH  17  20
ENDBRANCH   1  14
TORSDOF 7
ENDMDL
