MODEL 1
REMARK VINA RESULT:    -6.615      0.000      0.000
REMARK INTER + INTRA:          -8.266
REMARK INTER:                  -7.775
REMARK INTRA:                  -0.491
REMARK UNBOUND:                -0.491
REMARK SMILES Clc1ccc(C(c2ccc(Cl)cc2)C(Cl)(Cl)Cl)cc1
REMARK SMILES IDX 6 1 14 2 15 3 16 4 17 5 5 6 4 7 18 8 3 9 19 10 2 11 1 12
REMARK SMILES IDX 7 13 8 14 13 15 9 16 12 17 10 18 11 19
REMARK H PARENT
REMARK Flexibility Score: inf
ROOT
ATOM      1  C   UNL     1      -0.075   1.459  -1.589  1.00  0.00     0.101 C 
ENDROOT
BRANCH   1   2
ATOM      2  C   UNL     1       0.289   0.858  -0.167  1.00  0.00     0.201 C 
ATOM      3  Cl  UNL     1      -0.690   1.515   1.184  1.00  0.00    -0.083 Cl
ATOM      4  Cl  UNL     1       2.018   1.246   0.223  1.00  0.00    -0.083 Cl
ATOM      5  Cl  UNL     1       0.165  -0.941  -0.133  1.00  0.00    -0.083 Cl
ENDBRANCH   1   2
BRANCH   1   6
ATOM      6  C   UNL     1       0.015   2.943  -1.705  1.00  0.00    -0.036 A 
ATOM      7  C   UNL     1      -0.794   3.755  -0.911  1.00  0.00     0.006 A 
ATOM      8  C   UNL     1       0.907   3.520  -2.610  1.00  0.00     0.006 A 
ATOM      9  C   UNL     1      -0.711   5.143  -1.020  1.00  0.00     0.021 A 
ATOM     10  C   UNL     1       0.990   4.907  -2.719  1.00  0.00     0.021 A 
ATOM     11  C   UNL     1       0.181   5.719  -1.925  1.00  0.00     0.041 A 
ATOM     12  Cl  UNL     1       0.283   7.432  -2.060  1.00  0.00    -0.084 Cl
ENDBRANCH   1   6
BRANCH   1  13
ATOM     13  C   UNL     1      -1.336   0.879  -2.278  1.00  0.00    -0.036 A 
ATOM     14  C   UNL     1      -2.557   1.330  -1.863  1.00  0.00     0.006 A 
ATOM     15  C   UNL     1      -1.154  -0.053  -3.262  1.00  0.00     0.006 A 
ATOM     16  C   UNL     1      -3.691   0.806  -2.482  1.00  0.00     0.021 A 
ATOM     17  C   UNL     1      -2.289  -0.577  -3.882  1.00  0.00     0.021 A 
ATOM     18  C   UNL     1      -3.558  -0.147  -3.492  1.00  0.00     0.041 A 
ATOM     19  Cl  UNL     1      -4.957  -0.795  -4.257  1.00  0.00    -0.084 Cl
ENDBRANCH   1  13
TORSDOF 3
ENDMDL
MODEL 2
REMARK VINA RESULT:    -6.608      0.050      1.110
REMARK INTER + INTRA:          -8.258
REMARK INTER:                  -7.784
REMARK INTRA:                  -0.474
REMARK UNBOUND:                -0.491
REMARK SMILES Clc1ccc(C(c2ccc(Cl)cc2)C(Cl)(Cl)Cl)cc1
REMARK SMILES IDX 6 1 14 2 15 3 16 4 17 5 5 6 4 7 18 8 3 9 19 10 2 11 1 12
REMARK SMILES IDX 7 13 8 14 13 15 9 16 12 17 10 18 11 19
REMARK H PARENT
REMARK Flexibility Score: inf
ROOT
ATOM      1  C   UNL     1      -0.114   1.454  -1.596  1.00  0.00     0.101 C 
ENDROOT
BRANCH   1   2
ATOM      2  C   UNL     1       0.248   0.851  -0.174  1.00  0.00     0.201 C 
ATOM      3  Cl  UNL     1      -0.740   1.498   1.176  1.00  0.00    -0.083 Cl
ATOM      4  Cl  UNL     1       1.974   1.246   0.224  1.00  0.00    -0.083 Cl
ATOM      5  Cl  UNL     1       0.133  -0.950  -0.147  1.00  0.00    -0.083 Cl
ENDBRANCH   1   2
BRANCH   1   6
ATOM      6  C   UNL     1      -0.034   2.939  -1.706  1.00  0.00    -0.036 A 
ATOM      7  C   UNL     1       0.851   3.524  -2.611  1.00  0.00     0.006 A 
ATOM      8  C   UNL     1      -0.842   3.744  -0.902  1.00  0.00     0.006 A 
ATOM      9  C   UNL     1       0.928   4.914  -2.714  1.00  0.00     0.021 A 
ATOM     10  C   UNL     1      -0.767   5.133  -1.005  1.00  0.00     0.021 A 
ATOM     11  C   UNL     1       0.118   5.717  -1.910  1.00  0.00     0.041 A 
ATOM     12  Cl  UNL     1       0.212   7.432  -2.036  1.00  0.00    -0.084 Cl
ENDBRANCH   1   6
BRANCH   1  13
ATOM     13  C   UNL     1      -1.368   0.868  -2.292  1.00  0.00    -0.036 A 
ATOM     14  C   UNL     1      -2.593   1.332  -1.902  1.00  0.00     0.006 A 
ATOM     15  C   UNL     1      -1.177  -0.080  -3.258  1.00  0.00     0.006 A 
ATOM     16  C   UNL     1      -3.720   0.803  -2.528  1.00  0.00     0.021 A 
ATOM     17  C   UNL     1      -2.306  -0.610  -3.884  1.00  0.00     0.021 A 
ATOM     18  C   UNL     1      -3.578  -0.167  -3.520  1.00  0.00     0.041 A 
ATOM     19  Cl  UNL     1      -4.970  -0.821  -4.292  1.00  0.00    -0.084 Cl
ENDBRANCH   1  13
TORSDOF 3
ENDMDL
MODEL 3
REMARK VINA RESULT:    -6.580      2.232      4.700
REMARK INTER + INTRA:          -8.225
REMARK INTER:                  -7.600
REMARK INTRA:                  -0.625
REMARK UNBOUND:                -0.491
REMARK SMILES Clc1ccc(C(c2ccc(Cl)cc2)C(Cl)(Cl)Cl)cc1
REMARK SMILES IDX 6 1 14 2 15 3 16 4 17 5 5 6 4 7 18 8 3 9 19 10 2 11 1 12
REMARK SMILES IDX 7 13 8 14 13 15 9 16 12 17 10 18 11 19
REMARK H PARENT
REMARK Flexibility Score: inf
ROOT
ATOM      1  C   UNL     1      -1.388   2.021  -1.315  1.00  0.00     0.101 C 
ENDROOT
BRANCH   1   2
ATOM      2  C   UNL     1      -1.829   1.160  -2.571  1.00  0.00     0.201 C 
ATOM      3  Cl  UNL     1      -1.166   1.738  -4.134  1.00  0.00    -0.083 Cl
ATOM      4  Cl  UNL     1      -3.636   1.218  -2.733  1.00  0.00    -0.083 Cl
ATOM      5  Cl  UNL     1      -1.405  -0.585  -2.387  1.00  0.00    -0.083 Cl
ENDBRANCH   1   2
BRANCH   1   6
ATOM      6  C   UNL     1      -1.808   3.452  -1.334  1.00  0.00    -0.036 A 
ATOM      7  C   UNL     1      -2.211   4.075  -0.154  1.00  0.00     0.006 A 
ATOM      8  C   UNL     1      -1.798   4.167  -2.532  1.00  0.00     0.006 A 
ATOM      9  C   UNL     1      -2.605   5.414  -0.171  1.00  0.00     0.021 A 
ATOM     10  C   UNL     1      -2.192   5.505  -2.550  1.00  0.00     0.021 A 
ATOM     11  C   UNL     1      -2.595   6.128  -1.369  1.00  0.00     0.041 A 
ATOM     12  Cl  UNL     1      -3.082   7.779  -1.391  1.00  0.00    -0.084 Cl
ENDBRANCH   1   6
BRANCH   1  13
ATOM     13  C   UNL     1       0.072   1.831  -0.830  1.00  0.00    -0.036 A 
ATOM     14  C   UNL     1       1.072   2.392  -1.573  1.00  0.00     0.006 A 
ATOM     15  C   UNL     1       0.276   1.111   0.314  1.00  0.00     0.006 A 
ATOM     16  C   UNL     1       2.385   2.219  -1.136  1.00  0.00     0.021 A 
ATOM     17  C   UNL     1       1.589   0.937   0.750  1.00  0.00     0.021 A 
ATOM     18  C   UNL     1       2.644   1.492   0.026  1.00  0.00     0.041 A 
ATOM     19  Cl  UNL     1       4.264   1.278   0.564  1.00  0.00    -0.084 Cl
ENDBRANCH   1  13
TORSDOF 3
ENDMDL
MODEL 4
REMARK VINA RESULT:    -6.507      2.262      4.648
REMARK INTER + INTRA:          -8.139
REMARK INTER:                  -7.537
REMARK INTRA:                  -0.602
REMARK UNBOUND:                -0.491
REMARK SMILES Clc1ccc(C(c2ccc(Cl)cc2)C(Cl)(Cl)Cl)cc1
REMARK SMILES IDX 6 1 14 2 15 3 16 4 17 5 5 6 4 7 18 8 3 9 19 10 2 11 1 12
REMARK SMILES IDX 7 13 8 14 13 15 9 16 12 17 10 18 11 19
REMARK H PARENT
REMARK Flexibility Score: inf
ROOT
ATOM      1  C   UNL     1      -1.378   1.636  -1.486  1.00  0.00     0.101 C 
ENDROOT
BRANCH   1   2
ATOM      2  C   UNL     1      -1.727   0.659  -2.686  1.00  0.00     0.201 C 
ATOM      3  Cl  UNL     1      -3.483   0.449  -2.979  1.00  0.00    -0.083 Cl
ATOM      4  Cl  UNL     1      -1.070  -0.993  -2.325  1.00  0.00    -0.083 Cl
ATOM      5  Cl  UNL     1      -0.952   1.173  -4.233  1.00  0.00    -0.083 Cl
ENDBRANCH   1   2
BRANCH   1   6
ATOM      6  C   UNL     1      -1.918   3.021  -1.603  1.00  0.00    -0.036 A 
ATOM      7  C   UNL     1      -2.211   3.754  -0.454  1.00  0.00     0.006 A 
ATOM      8  C   UNL     1      -2.132   3.583  -2.863  1.00  0.00     0.006 A 
ATOM      9  C   UNL     1      -2.718   5.050  -0.563  1.00  0.00     0.021 A 
ATOM     10  C   UNL     1      -2.638   4.878  -2.972  1.00  0.00     0.021 A 
ATOM     11  C   UNL     1      -2.931   5.611  -1.823  1.00  0.00     0.041 A 
ATOM     12  Cl  UNL     1      -3.557   7.209  -1.958  1.00  0.00    -0.084 Cl
ENDBRANCH   1   6
BRANCH   1  13
ATOM     13  C   UNL     1       0.086   1.604  -0.977  1.00  0.00    -0.036 A 
ATOM     14  C   UNL     1       0.353   0.891   0.158  1.00  0.00     0.006 A 
ATOM     15  C   UNL     1       1.026   2.293  -1.691  1.00  0.00     0.006 A 
ATOM     16  C   UNL     1       1.670   0.864   0.616  1.00  0.00     0.021 A 
ATOM     17  C   UNL     1       2.343   2.267  -1.232  1.00  0.00     0.021 A 
ATOM     18  C   UNL     1       2.665   1.552  -0.078  1.00  0.00     0.041 A 
ATOM     19  Cl  UNL     1       4.290   1.520   0.488  1.00  0.00    -0.084 Cl
ENDBRANCH   1  13
TORSDOF 3
ENDMDL
MODEL 5
REMARK VINA RESULT:    -6.143      3.190      5.350
REMARK INTER + INTRA:          -7.711
REMARK INTER:                  -7.299
REMARK INTRA:                  -0.412
REMARK UNBOUND:                -0.491
REMARK SMILES Clc1ccc(C(c2ccc(Cl)cc2)C(Cl)(Cl)Cl)cc1
REMARK SMILES IDX 6 1 14 2 15 3 16 4 17 5 5 6 4 7 18 8 3 9 19 10 2 11 1 12
REMARK SMILES IDX 7 13 8 14 13 15 9 16 12 17 10 18 11 19
REMARK H PARENT
REMARK Flexibility Score: inf
ROOT
ATOM      1  C   UNL     1      -4.238   3.584  -1.385  1.00  0.00     0.101 C 
ENDROOT
BRANCH   1   2
ATOM      2  C   UNL     1      -5.053   2.692  -2.412  1.00  0.00     0.201 C 
ATOM      3  Cl  UNL     1      -6.824   2.972  -2.390  1.00  0.00    -0.083 Cl
ATOM      4  Cl  UNL     1      -4.810   0.939  -2.010  1.00  0.00    -0.083 Cl
ATOM      5  Cl  UNL     1      -4.470   2.896  -4.108  1.00  0.00    -0.083 Cl
ENDBRANCH   1   2
BRANCH   1   6
ATOM      6  C   UNL     1      -4.102   5.024  -1.748  1.00  0.00    -0.036 A 
ATOM      7  C   UNL     1      -2.988   5.748  -1.323  1.00  0.00     0.006 A 
ATOM      8  C   UNL     1      -5.090   5.649  -2.510  1.00  0.00     0.006 A 
ATOM      9  C   UNL     1      -2.860   7.095  -1.661  1.00  0.00     0.021 A 
ATOM     10  C   UNL     1      -4.962   6.996  -2.848  1.00  0.00     0.021 A 
ATOM     11  C   UNL     1      -3.848   7.719  -2.423  1.00  0.00     0.041 A 
ATOM     12  Cl  UNL     1      -3.692   9.382  -2.840  1.00  0.00    -0.084 Cl
ENDBRANCH   1   6
BRANCH   1  13
ATOM     13  C   UNL     1      -2.921   2.976  -0.840  1.00  0.00    -0.036 A 
ATOM     14  C   UNL     1      -1.916   2.723  -1.732  1.00  0.00     0.006 A 
ATOM     15  C   UNL     1      -2.839   2.726   0.501  1.00  0.00     0.006 A 
ATOM     16  C   UNL     1      -0.732   2.174  -1.241  1.00  0.00     0.021 A 
ATOM     17  C   UNL     1      -1.655   2.176   0.992  1.00  0.00     0.021 A 
ATOM     18  C   UNL     1      -0.601   1.901   0.121  1.00  0.00     0.041 A 
ATOM     19  Cl  UNL     1       0.861   1.223   0.727  1.00  0.00    -0.084 Cl
ENDBRANCH   1  13
TORSDOF 3
ENDMDL
