MODEL 1
REMARK VINA RESULT:    -7.754      0.000      0.000
REMARK INTER + INTRA:         -11.864
REMARK INTER:                 -11.381
REMARK INTRA:                  -0.483
REMARK UNBOUND:                -0.483
REMARK SMILES CC1(C)C(C=C(Br)Br)C1C(=O)OC(C#N)c1cccc(Oc2ccccc2)c1
REMARK SMILES IDX 13 1 12 2 10 3 11 4 9 5 4 6 2 7 1 8 3 9 5 10 7 11 6 12 8 13
REMARK SMILES IDX 16 14 28 15 17 16 20 17 18 18 19 19 21 20 22 21 23 22 27 23
REMARK SMILES IDX 24 24 26 25 25 26 14 27 15 28
REMARK H PARENT
REMARK Flexibility Score: inf
ROOT
ATOM      1  C   UNL     1      -4.056   1.036  -4.070  1.00  0.00     0.309 C
ENDROOT
BRANCH   1   2
ATOM      2  O   UNL     1      -4.626   2.133  -3.344  1.00  0.00    -0.442 OA
BRANCH   2   3
ATOM      3  C   UNL     1      -4.488   3.352  -3.931  1.00  0.00     0.311 C
ATOM      4  O   UNL     1      -3.580   3.720  -4.663  1.00  0.00    -0.252 OA
BRANCH   3   5
ATOM      5  C   UNL     1      -5.615   4.254  -3.577  1.00  0.00     0.113 C
ATOM      6  C   UNL     1      -5.295   5.617  -3.052  1.00  0.00     0.035 C
ATOM      7  C   UNL     1      -5.890   4.581  -2.144  1.00  0.00    -0.014 C
ATOM      8  C   UNL     1      -5.008   4.017  -1.080  1.00  0.00     0.012 C
ATOM      9  C   UNL     1      -7.321   4.688  -1.736  1.00  0.00     0.012 C
BRANCH   6  10
ATOM     10  C   UNL     1      -3.897   5.998  -2.923  1.00  0.00     0.001 C
ATOM     11  Br  UNL     1      -4.435   8.785  -2.777  1.00  0.00    -0.043 Br
ATOM     12  C   UNL     1      -3.386   7.235  -2.803  1.00  0.00     0.057 C
ATOM     13  Br  UNL     1      -1.537   7.507  -2.648  1.00  0.00    -0.043 Br
ENDBRANCH   6  10
ENDBRANCH   3   5
ENDBRANCH   2   3
ENDBRANCH   1   2
BRANCH   1  14
ATOM     14  C   UNL     1      -2.846   0.531  -3.362  1.00  0.00     0.011 A
ATOM     15  C   UNL     1      -1.989   1.426  -2.719  1.00  0.00     0.055 A
ATOM     16  C   UNL     1      -2.570  -0.836  -3.340  1.00  0.00     0.009 A
ATOM     17  C   UNL     1      -0.857   0.953  -2.057  1.00  0.00     0.127 A
ATOM     18  C   UNL     1      -1.437  -1.308  -2.677  1.00  0.00     0.004 A
ATOM     19  C   UNL     1      -0.580  -0.414  -2.036  1.00  0.00     0.047 A
BRANCH  17  20
ATOM     20  O   UNL     1      -0.020   1.825  -1.430  1.00  0.00    -0.457 OA
BRANCH  20  21
ATOM     21  C   UNL     1       0.477   1.461  -0.190  1.00  0.00     0.127 A
ATOM     22  C   UNL     1       1.840   1.288  -0.035  1.00  0.00     0.047 A
ATOM     23  C   UNL     1      -0.403   1.279   0.862  1.00  0.00     0.047 A
ATOM     24  C   UNL     1       2.342   0.921   1.214  1.00  0.00     0.004 A
ATOM     25  C   UNL     1       0.098   0.912   2.111  1.00  0.00     0.004 A
ATOM     26  C   UNL     1       1.470   0.734   2.288  1.00  0.00     0.000 A
ENDBRANCH  20  21
ENDBRANCH  17  20
ENDBRANCH   1  14
BRANCH   1  27
ATOM     27  C   UNL     1      -5.082  -0.011  -4.259  1.00  0.00     0.113 C
ATOM     28  N   UNL     1      -5.886  -0.836  -4.397  1.00  0.00    -0.194 NA
ENDBRANCH   1  27
TORSDOF 8
ENDMDL
MODEL 2
REMARK VINA RESULT:    -7.585      2.960      6.559
REMARK INTER + INTRA:         -11.616
REMARK INTER:                 -10.157
REMARK INTRA:                  -1.459
REMARK UNBOUND:                -0.483
REMARK SMILES CC1(C)C(C=C(Br)Br)C1C(=O)OC(C#N)c1cccc(Oc2ccccc2)c1
REMARK SMILES IDX 13 1 12 2 10 3 11 4 9 5 4 6 2 7 1 8 3 9 5 10 7 11 6 12 8 13
REMARK SMILES IDX 16 14 28 15 17 16 20 17 18 18 19 19 21 20 22 21 23 22 27 23
REMARK SMILES IDX 24 24 26 25 25 26 14 27 15 28
REMARK H PARENT
REMARK Flexibility Score: inf
ROOT
ATOM      1  C   UNL     1      -4.196   1.451  -2.716  1.00  0.00     0.309 C
ENDROOT
BRANCH   1   2
ATOM      2  O   UNL     1      -2.867   1.554  -3.247  1.00  0.00    -0.442 OA
BRANCH   2   3
ATOM      3  C   UNL     1      -1.869   1.229  -2.383  1.00  0.00     0.311 C
ATOM      4  O   UNL     1      -1.641   0.128  -1.900  1.00  0.00    -0.252 OA
BRANCH   3   5
ATOM      5  C   UNL     1      -1.027   2.410  -2.059  1.00  0.00     0.113 C
ATOM      6  C   UNL     1      -0.190   2.366  -0.821  1.00  0.00     0.035 C
ATOM      7  C   UNL     1      -1.377   3.281  -0.895  1.00  0.00    -0.014 C
ATOM      8  C   UNL     1      -2.558   2.938  -0.050  1.00  0.00     0.012 C
ATOM      9  C   UNL     1      -1.169   4.749  -1.062  1.00  0.00     0.012 C
BRANCH   6  10
ATOM     10  C   UNL     1      -0.233   1.165   0.001  1.00  0.00     0.001 C
ATOM     11  Br  UNL     1       2.537   1.228   0.638  1.00  0.00    -0.043 Br
ATOM     12  C   UNL     1       0.782   0.577   0.657  1.00  0.00     0.057 C
ATOM     13  Br  UNL     1       0.508  -0.978   1.669  1.00  0.00    -0.043 Br
ENDBRANCH   6  10
ENDBRANCH   3   5
ENDBRANCH   2   3
ENDBRANCH   1   2
BRANCH   1  14
ATOM     14  C   UNL     1      -4.903   2.755  -2.858  1.00  0.00     0.011 A
ATOM     15  C   UNL     1      -4.315   3.793  -3.581  1.00  0.00     0.055 A
ATOM     16  C   UNL     1      -6.155   2.937  -2.270  1.00  0.00     0.009 A
ATOM     17  C   UNL     1      -4.977   5.013  -3.714  1.00  0.00     0.127 A
ATOM     18  C   UNL     1      -6.817   4.157  -2.404  1.00  0.00     0.004 A
ATOM     19  C   UNL     1      -6.228   5.195  -3.126  1.00  0.00     0.047 A
BRANCH  17  20
ATOM     20  O   UNL     1      -4.403   6.027  -4.419  1.00  0.00    -0.457 OA
BRANCH  20  21
ATOM     21  C   UNL     1      -3.335   6.689  -3.837  1.00  0.00     0.127 A
ATOM     22  C   UNL     1      -3.531   7.376  -2.653  1.00  0.00     0.047 A
ATOM     23  C   UNL     1      -2.098   6.647  -4.457  1.00  0.00     0.047 A
ATOM     24  C   UNL     1      -2.455   8.043  -2.067  1.00  0.00     0.004 A
ATOM     25  C   UNL     1      -1.023   7.315  -3.872  1.00  0.00     0.004 A
ATOM     26  C   UNL     1      -1.201   8.012  -2.677  1.00  0.00     0.000 A
ENDBRANCH  20  21
ENDBRANCH  17  20
ENDBRANCH   1  14
BRANCH   1  27
ATOM     27  C   UNL     1      -4.905   0.343  -3.387  1.00  0.00     0.113 C
ATOM     28  N   UNL     1      -5.473  -0.522  -3.913  1.00  0.00    -0.194 NA
ENDBRANCH   1  27
TORSDOF 8
ENDMDL
MODEL 3
REMARK VINA RESULT:    -7.489      3.470      6.730
REMARK INTER + INTRA:         -11.475
REMARK INTER:                  -9.435
REMARK INTRA:                  -2.040
REMARK UNBOUND:                -0.483
REMARK SMILES CC1(C)C(C=C(Br)Br)C1C(=O)OC(C#N)c1cccc(Oc2ccccc2)c1
REMARK SMILES IDX 13 1 12 2 10 3 11 4 9 5 4 6 2 7 1 8 3 9 5 10 7 11 6 12 8 13
REMARK SMILES IDX 16 14 28 15 17 16 20 17 18 18 19 19 21 20 22 21 23 22 27 23
REMARK SMILES IDX 24 24 26 25 25 26 14 27 15 28
REMARK H PARENT
REMARK Flexibility Score: inf
ROOT
ATOM      1  C   UNL     1       0.639   2.977  -3.840  1.00  0.00     0.309 C
ENDROOT
BRANCH   1   2
ATOM      2  O   UNL     1       0.080   1.947  -3.013  1.00  0.00    -0.442 OA
BRANCH   2   3
ATOM      3  C   UNL     1      -0.818   1.131  -3.627  1.00  0.00     0.311 C
ATOM      4  O   UNL     1      -0.667  -0.048  -3.915  1.00  0.00    -0.252 OA
BRANCH   3   5
ATOM      5  C   UNL     1      -2.080   1.852  -3.937  1.00  0.00     0.113 C
ATOM      6  C   UNL     1      -2.925   2.325  -2.798  1.00  0.00     0.035 C
ATOM      7  C   UNL     1      -3.399   1.200  -3.670  1.00  0.00    -0.014 C
ATOM      8  C   UNL     1      -3.435  -0.164  -3.067  1.00  0.00     0.012 C
ATOM      9  C   UNL     1      -4.487   1.441  -4.663  1.00  0.00     0.012 C
BRANCH   6  10
ATOM     10  C   UNL     1      -2.466   2.066  -1.442  1.00  0.00     0.001 C
ATOM     11  Br  UNL     1      -2.940   4.718  -0.533  1.00  0.00    -0.043 Br
ATOM     12  C   UNL     1      -2.409   2.927  -0.411  1.00  0.00     0.057 C
ATOM     13  Br  UNL     1      -1.778   2.383   1.269  1.00  0.00    -0.043 Br
ENDBRANCH   6  10
ENDBRANCH   3   5
ENDBRANCH   2   3
ENDBRANCH   1   2
BRANCH   1  14
ATOM     14  C   UNL     1       0.352   4.315  -3.249  1.00  0.00     0.011 A
ATOM     15  C   UNL     1      -0.474   5.214  -3.924  1.00  0.00     0.055 A
ATOM     16  C   UNL     1       0.909   4.667  -2.019  1.00  0.00     0.009 A
ATOM     17  C   UNL     1      -0.742   6.465  -3.370  1.00  0.00     0.127 A
ATOM     18  C   UNL     1       0.640   5.919  -1.466  1.00  0.00     0.004 A
ATOM     19  C   UNL     1      -0.185   6.819  -2.141  1.00  0.00     0.047 A
BRANCH  17  20
ATOM     20  O   UNL     1      -1.547   7.344  -4.029  1.00  0.00    -0.457 OA
BRANCH  20  21
ATOM     21  C   UNL     1      -2.864   7.448  -3.610  1.00  0.00     0.127 A
ATOM     22  C   UNL     1      -3.272   8.592  -2.950  1.00  0.00     0.047 A
ATOM     23  C   UNL     1      -3.736   6.404  -3.864  1.00  0.00     0.047 A
ATOM     24  C   UNL     1      -4.598   8.697  -2.528  1.00  0.00     0.004 A
ATOM     25  C   UNL     1      -5.060   6.509  -3.442  1.00  0.00     0.004 A
ATOM     26  C   UNL     1      -5.493   7.655  -2.775  1.00  0.00     0.000 A
ENDBRANCH  20  21
ENDBRANCH  17  20
ENDBRANCH   1  14
BRANCH   1  27
ATOM     27  C   UNL     1       2.084   2.732  -4.017  1.00  0.00     0.113 C
ATOM     28  N   UNL     1       3.218   2.534  -4.166  1.00  0.00    -0.194 NA
ENDBRANCH   1  27
TORSDOF 8
ENDMDL
MODEL 4
REMARK VINA RESULT:    -7.397      3.286      7.545
REMARK INTER + INTRA:         -11.339
REMARK INTER:                 -10.527
REMARK INTRA:                  -0.812
REMARK UNBOUND:                -0.483
REMARK SMILES CC1(C)C(C=C(Br)Br)C1C(=O)OC(C#N)c1cccc(Oc2ccccc2)c1
REMARK SMILES IDX 13 1 12 2 10 3 11 4 9 5 4 6 2 7 1 8 3 9 5 10 7 11 6 12 8 13
REMARK SMILES IDX 16 14 28 15 17 16 20 17 18 18 19 19 21 20 22 21 23 22 27 23
REMARK SMILES IDX 24 24 26 25 25 26 14 27 15 28
REMARK H PARENT
REMARK Flexibility Score: inf
ROOT
ATOM      1  C   UNL     1      -4.159   1.722  -2.442  1.00  0.00     0.309 C
ENDROOT
BRANCH   1   2
ATOM      2  O   UNL     1      -2.863   1.856  -3.041  1.00  0.00    -0.442 OA
BRANCH   2   3
ATOM      3  C   UNL     1      -1.829   1.369  -2.303  1.00  0.00     0.311 C
ATOM      4  O   UNL     1      -1.692   0.226  -1.889  1.00  0.00    -0.252 OA
BRANCH   3   5
ATOM      5  C   UNL     1      -0.817   2.422  -2.029  1.00  0.00     0.113 C
ATOM      6  C   UNL     1       0.082   2.251  -0.847  1.00  0.00     0.035 C
ATOM      7  C   UNL     1      -0.972   3.318  -0.842  1.00  0.00    -0.014 C
ATOM      8  C   UNL     1      -2.134   3.128   0.074  1.00  0.00     0.012 C
ATOM      9  C   UNL     1      -0.579   4.747  -1.017  1.00  0.00     0.012 C
BRANCH   6  10
ATOM     10  C   UNL     1      -0.071   1.058  -0.028  1.00  0.00     0.001 C
ATOM     11  Br  UNL     1       2.581   1.142   0.993  1.00  0.00    -0.043 Br
ATOM     12  C   UNL     1       0.844   0.481   0.770  1.00  0.00     0.057 C
ATOM     13  Br  UNL     1       0.437  -1.067   1.748  1.00  0.00    -0.043 Br
ENDBRANCH   6  10
ENDBRANCH   3   5
ENDBRANCH   2   3
ENDBRANCH   1   2
BRANCH   1  14
ATOM     14  C   UNL     1      -4.885   3.022  -2.505  1.00  0.00     0.011 A
ATOM     15  C   UNL     1      -6.278   3.048  -2.430  1.00  0.00     0.055 A
ATOM     16  C   UNL     1      -4.172   4.213  -2.639  1.00  0.00     0.009 A
ATOM     17  C   UNL     1      -6.957   4.265  -2.489  1.00  0.00     0.127 A
ATOM     18  C   UNL     1      -4.851   5.430  -2.698  1.00  0.00     0.004 A
ATOM     19  C   UNL     1      -6.244   5.456  -2.623  1.00  0.00     0.047 A
BRANCH  17  20
ATOM     20  O   UNL     1      -8.316   4.291  -2.416  1.00  0.00    -0.457 OA
BRANCH  20  21
ATOM     21  C   UNL     1      -8.891   4.379  -1.159  1.00  0.00     0.127 A
ATOM     22  C   UNL     1      -8.733   5.540  -0.425  1.00  0.00     0.047 A
ATOM     23  C   UNL     1      -9.609   3.302  -0.669  1.00  0.00     0.047 A
ATOM     24  C   UNL     1      -9.312   5.629   0.841  1.00  0.00     0.004 A
ATOM     25  C   UNL     1     -10.187   3.390   0.597  1.00  0.00     0.004 A
ATOM     26  C   UNL     1     -10.040   4.554   1.352  1.00  0.00     0.000 A
ENDBRANCH  20  21
ENDBRANCH  17  20
ENDBRANCH   1  14
BRANCH   1  27
ATOM     27  C   UNL     1      -4.894   0.627  -3.107  1.00  0.00     0.113 C
ATOM     28  N   UNL     1      -5.469  -0.240  -3.622  1.00  0.00    -0.194 NA
ENDBRANCH   1  27
TORSDOF 8
ENDMDL
MODEL 5
REMARK VINA RESULT:    -7.291      2.767      6.270
REMARK INTER + INTRA:         -11.184
REMARK INTER:                  -9.836
REMARK INTRA:                  -1.348
REMARK UNBOUND:                -0.483
REMARK SMILES CC1(C)C(C=C(Br)Br)C1C(=O)OC(C#N)c1cccc(Oc2ccccc2)c1
REMARK SMILES IDX 13 1 12 2 10 3 11 4 9 5 4 6 2 7 1 8 3 9 5 10 7 11 6 12 8 13
REMARK SMILES IDX 16 14 28 15 17 16 20 17 18 18 19 19 21 20 22 21 23 22 27 23
REMARK SMILES IDX 24 24 26 25 25 26 14 27 15 28
REMARK H PARENT
REMARK Flexibility Score: inf
ROOT
ATOM      1  C   UNL     1      -0.495   1.221  -1.018  1.00  0.00     0.309 C
ENDROOT
BRANCH   1   2
ATOM      2  O   UNL     1       0.563   1.853  -1.751  1.00  0.00    -0.442 OA
BRANCH   2   3
ATOM      3  C   UNL     1       0.513   3.212  -1.790  1.00  0.00     0.311 C
ATOM      4  O   UNL     1      -0.301   3.935  -1.234  1.00  0.00    -0.252 OA
BRANCH   3   5
ATOM      5  C   UNL     1       1.608   3.770  -2.625  1.00  0.00     0.113 C
ATOM      6  C   UNL     1       1.255   4.763  -3.686  1.00  0.00     0.035 C
ATOM      7  C   UNL     1       1.719   3.388  -4.066  1.00  0.00    -0.014 C
ATOM      8  C   UNL     1       0.709   2.465  -4.661  1.00  0.00     0.012 C
ATOM      9  C   UNL     1       3.095   3.196  -4.611  1.00  0.00     0.012 C
BRANCH   6  10
ATOM     10  C   UNL     1      -0.141   5.141  -3.843  1.00  0.00     0.001 C
ATOM     11  Br  UNL     1       0.145   7.628  -2.497  1.00  0.00    -0.043 Br
ATOM     12  C   UNL     1      -0.745   6.264  -3.418  1.00  0.00     0.057 C
ATOM     13  Br  UNL     1      -2.572   6.556  -3.728  1.00  0.00    -0.043 Br
ENDBRANCH   6  10
ENDBRANCH   3   5
ENDBRANCH   2   3
ENDBRANCH   1   2
BRANCH   1  14
ATOM     14  C   UNL     1      -1.487   0.633  -1.962  1.00  0.00     0.011 A
ATOM     15  C   UNL     1      -2.821   1.042  -1.918  1.00  0.00     0.055 A
ATOM     16  C   UNL     1      -1.082  -0.325  -2.892  1.00  0.00     0.009 A
ATOM     17  C   UNL     1      -3.748   0.492  -2.803  1.00  0.00     0.127 A
ATOM     18  C   UNL     1      -2.011  -0.874  -3.776  1.00  0.00     0.004 A
ATOM     19  C   UNL     1      -3.344  -0.467  -3.731  1.00  0.00     0.047 A
BRANCH  17  20
ATOM     20  O   UNL     1      -5.049   0.890  -2.759  1.00  0.00    -0.457 OA
BRANCH  20  21
ATOM     21  C   UNL     1      -5.332   2.205  -3.092  1.00  0.00     0.127 A
ATOM     22  C   UNL     1      -5.999   3.002  -2.180  1.00  0.00     0.047 A
ATOM     23  C   UNL     1      -4.939   2.686  -4.328  1.00  0.00     0.047 A
ATOM     24  C   UNL     1      -6.284   4.326  -2.515  1.00  0.00     0.004 A
ATOM     25  C   UNL     1      -5.224   4.009  -4.663  1.00  0.00     0.004 A
ATOM     26  C   UNL     1      -5.895   4.830  -3.757  1.00  0.00     0.000 A
ENDBRANCH  20  21
ENDBRANCH  17  20
ENDBRANCH   1  14
BRANCH   1  27
ATOM     27  C   UNL     1       0.078   0.217  -0.099  1.00  0.00     0.113 C
ATOM     28  N   UNL     1       0.538  -0.565   0.625  1.00  0.00    -0.194 NA
ENDBRANCH   1  27
TORSDOF 8
ENDMDL
