MODEL 1
REMARK VINA RESULT:    -6.638      0.000      0.000
REMARK INTER + INTRA:          -8.283
REMARK INTER:                  -7.802
REMARK INTRA:                  -0.481
REMARK UNBOUND:                -0.481
REMARK SMILES Clc1ccc(C(c2ccc(Cl)cc2)C(Cl)(Cl)Cl)cc1
REMARK SMILES IDX 6 1 14 2 15 3 16 4 17 5 5 6 4 7 18 8 3 9 19 10 2 11 1 12
REMARK SMILES IDX 7 13 8 14 13 15 9 16 12 17 10 18 11 19
REMARK H PARENT
REMARK Flexibility Score: inf
ROOT
ATOM      1  C   UNL     1      -0.071   1.462  -1.618  1.00  0.00     0.101 C 
ENDROOT
BRANCH   1   2
ATOM      2  C   UNL     1       0.317   0.844  -0.210  1.00  0.00     0.201 C 
ATOM      3  Cl  UNL     1      -0.668   1.452   1.160  1.00  0.00    -0.083 Cl
ATOM      4  Cl  UNL     1       2.039   1.266   0.176  1.00  0.00    -0.083 Cl
ATOM      5  Cl  UNL     1       0.237  -0.958  -0.208  1.00  0.00    -0.083 Cl
ENDBRANCH   1   2
BRANCH   1   6
ATOM      6  C   UNL     1       0.003   2.948  -1.714  1.00  0.00    -0.036 A 
ATOM      7  C   UNL     1       0.871   3.545  -2.627  1.00  0.00     0.006 A 
ATOM      8  C   UNL     1      -0.796   3.741  -0.889  1.00  0.00     0.006 A 
ATOM      9  C   UNL     1       0.942   4.936  -2.716  1.00  0.00     0.021 A 
ATOM     10  C   UNL     1      -0.726   5.131  -0.979  1.00  0.00     0.021 A 
ATOM     11  C   UNL     1       0.143   5.729  -1.892  1.00  0.00     0.041 A 
ATOM     12  Cl  UNL     1       0.229   7.444  -2.001  1.00  0.00    -0.084 Cl
ENDBRANCH   1   6
BRANCH   1  13
ATOM     13  C   UNL     1      -1.335   0.879  -2.299  1.00  0.00    -0.036 A 
ATOM     14  C   UNL     1      -2.554   1.342  -1.890  1.00  0.00     0.006 A 
ATOM     15  C   UNL     1      -1.159  -0.066  -3.271  1.00  0.00     0.006 A 
ATOM     16  C   UNL     1      -3.691   0.817  -2.502  1.00  0.00     0.021 A 
ATOM     17  C   UNL     1      -2.297  -0.592  -3.883  1.00  0.00     0.021 A 
ATOM     18  C   UNL     1      -3.563  -0.151  -3.499  1.00  0.00     0.041 A 
ATOM     19  Cl  UNL     1      -4.967  -0.800  -4.254  1.00  0.00    -0.084 Cl
ENDBRANCH   1  13
TORSDOF 3
ENDMDL
MODEL 2
REMARK VINA RESULT:    -6.595      0.185      1.167
REMARK INTER + INTRA:          -8.233
REMARK INTER:                  -7.807
REMARK INTRA:                  -0.425
REMARK UNBOUND:                -0.481
REMARK SMILES Clc1ccc(C(c2ccc(Cl)cc2)C(Cl)(Cl)Cl)cc1
REMARK SMILES IDX 6 1 14 2 15 3 16 4 17 5 5 6 4 7 18 8 3 9 19 10 2 11 1 12
REMARK SMILES IDX 7 13 8 14 13 15 9 16 12 17 10 18 11 19
REMARK H PARENT
REMARK Flexibility Score: inf
ROOT
ATOM      1  C   UNL     1       0.024   1.487  -1.637  1.00  0.00     0.101 C 
ENDROOT
BRANCH   1   2
ATOM      2  C   UNL     1       0.396   0.942  -0.195  1.00  0.00     0.201 C 
ATOM      3  Cl  UNL     1       2.082   1.283   0.311  1.00  0.00    -0.083 Cl
ATOM      4  Cl  UNL     1       0.213  -0.863  -0.170  1.00  0.00    -0.083 Cl
ATOM      5  Cl  UNL     1      -0.716   1.569   1.081  1.00  0.00    -0.083 Cl
ENDBRANCH   1   2
BRANCH   1   6
ATOM      6  C   UNL     1       0.079   2.968  -1.801  1.00  0.00    -0.036 A 
ATOM      7  C   UNL     1       0.818   3.527  -2.843  1.00  0.00     0.006 A 
ATOM      8  C   UNL     1      -0.606   3.795  -0.910  1.00  0.00     0.006 A 
ATOM      9  C   UNL     1       0.871   4.913  -2.996  1.00  0.00     0.021 A 
ATOM     10  C   UNL     1      -0.554   5.181  -1.064  1.00  0.00     0.021 A 
ATOM     11  C   UNL     1       0.185   5.739  -2.106  1.00  0.00     0.041 A 
ATOM     12  Cl  UNL     1       0.250   7.449  -2.295  1.00  0.00    -0.084 Cl
ENDBRANCH   1   6
BRANCH   1  13
ATOM     13  C   UNL     1      -1.220   0.855  -2.311  1.00  0.00    -0.036 A 
ATOM     14  C   UNL     1      -2.452   1.317  -1.941  1.00  0.00     0.006 A 
ATOM     15  C   UNL     1      -1.014  -0.129  -3.237  1.00  0.00     0.006 A 
ATOM     16  C   UNL     1      -3.571   0.747  -2.547  1.00  0.00     0.021 A 
ATOM     17  C   UNL     1      -2.134  -0.699  -3.843  1.00  0.00     0.021 A 
ATOM     18  C   UNL     1      -3.412  -0.261  -3.499  1.00  0.00     0.041 A 
ATOM     19  Cl  UNL     1      -4.794  -0.965  -4.246  1.00  0.00    -0.084 Cl
ENDBRANCH   1  13
TORSDOF 3
ENDMDL
MODEL 3
REMARK VINA RESULT:    -6.513      2.268      4.746
REMARK INTER + INTRA:          -8.136
REMARK INTER:                  -7.536
REMARK INTRA:                  -0.600
REMARK UNBOUND:                -0.481
REMARK SMILES Clc1ccc(C(c2ccc(Cl)cc2)C(Cl)(Cl)Cl)cc1
REMARK SMILES IDX 6 1 14 2 15 3 16 4 17 5 5 6 4 7 18 8 3 9 19 10 2 11 1 12
REMARK SMILES IDX 7 13 8 14 13 15 9 16 12 17 10 18 11 19
REMARK H PARENT
REMARK Flexibility Score: inf
ROOT
ATOM      1  C   UNL     1      -1.409   1.592  -1.470  1.00  0.00     0.101 C 
ENDROOT
BRANCH   1   2
ATOM      2  C   UNL     1      -1.752   0.616  -2.672  1.00  0.00     0.201 C 
ATOM      3  Cl  UNL     1      -3.508   0.388  -2.960  1.00  0.00    -0.083 Cl
ATOM      4  Cl  UNL     1      -1.077  -1.031  -2.319  1.00  0.00    -0.083 Cl
ATOM      5  Cl  UNL     1      -0.989   1.143  -4.220  1.00  0.00    -0.083 Cl
ENDBRANCH   1   2
BRANCH   1   6
ATOM      6  C   UNL     1      -1.965   2.972  -1.581  1.00  0.00    -0.036 A 
ATOM      7  C   UNL     1      -2.231   3.710  -0.428  1.00  0.00     0.006 A 
ATOM      8  C   UNL     1      -2.219   3.523  -2.837  1.00  0.00     0.006 A 
ATOM      9  C   UNL     1      -2.752   5.001  -0.531  1.00  0.00     0.021 A 
ATOM     10  C   UNL     1      -2.739   4.813  -2.940  1.00  0.00     0.021 A 
ATOM     11  C   UNL     1      -3.006   5.552  -1.787  1.00  0.00     0.041 A 
ATOM     12  Cl  UNL     1      -3.649   7.144  -1.914  1.00  0.00    -0.084 Cl
ENDBRANCH   1   6
BRANCH   1  13
ATOM     13  C   UNL     1       0.056   1.575  -0.967  1.00  0.00    -0.036 A 
ATOM     14  C   UNL     1       0.337   0.853   0.160  1.00  0.00     0.006 A 
ATOM     15  C   UNL     1       0.985   2.283  -1.677  1.00  0.00     0.006 A 
ATOM     16  C   UNL     1       1.656   0.839   0.613  1.00  0.00     0.021 A 
ATOM     17  C   UNL     1       2.304   2.269  -1.223  1.00  0.00     0.021 A 
ATOM     18  C   UNL     1       2.639   1.546  -0.078  1.00  0.00     0.041 A 
ATOM     19  Cl  UNL     1       4.267   1.529   0.482  1.00  0.00    -0.084 Cl
ENDBRANCH   1  13
TORSDOF 3
ENDMDL
MODEL 4
REMARK VINA RESULT:    -6.497      2.255      4.641
REMARK INTER + INTRA:          -8.118
REMARK INTER:                  -7.552
REMARK INTRA:                  -0.566
REMARK UNBOUND:                -0.481
REMARK SMILES Clc1ccc(C(c2ccc(Cl)cc2)C(Cl)(Cl)Cl)cc1
REMARK SMILES IDX 6 1 14 2 15 3 16 4 17 5 5 6 4 7 18 8 3 9 19 10 2 11 1 12
REMARK SMILES IDX 7 13 8 14 13 15 9 16 12 17 10 18 11 19
REMARK H PARENT
REMARK Flexibility Score: inf
ROOT
ATOM      1  C   UNL     1      -1.415   1.604  -1.489  1.00  0.00     0.101 C 
ENDROOT
BRANCH   1   2
ATOM      2  C   UNL     1      -1.766   0.605  -2.670  1.00  0.00     0.201 C 
ATOM      3  Cl  UNL     1      -3.521   0.304  -2.886  1.00  0.00    -0.083 Cl
ATOM      4  Cl  UNL     1      -1.011  -1.011  -2.334  1.00  0.00    -0.083 Cl
ATOM      5  Cl  UNL     1      -1.087   1.150  -4.250  1.00  0.00    -0.083 Cl
ENDBRANCH   1   2
BRANCH   1   6
ATOM      6  C   UNL     1      -1.964   2.983  -1.626  1.00  0.00    -0.036 A 
ATOM      7  C   UNL     1      -2.228   3.507  -2.891  1.00  0.00     0.006 A 
ATOM      8  C   UNL     1      -2.214   3.751  -0.488  1.00  0.00     0.006 A 
ATOM      9  C   UNL     1      -2.740   4.798  -3.020  1.00  0.00     0.021 A 
ATOM     10  C   UNL     1      -2.727   5.042  -0.616  1.00  0.00     0.021 A 
ATOM     11  C   UNL     1      -2.990   5.565  -1.881  1.00  0.00     0.041 A 
ATOM     12  Cl  UNL     1      -3.622   7.158  -2.039  1.00  0.00    -0.084 Cl
ENDBRANCH   1   6
BRANCH   1  13
ATOM     13  C   UNL     1       0.051   1.589  -0.989  1.00  0.00    -0.036 A 
ATOM     14  C   UNL     1       0.333   0.884   0.148  1.00  0.00     0.006 A 
ATOM     15  C   UNL     1       0.980   2.283  -1.712  1.00  0.00     0.006 A 
ATOM     16  C   UNL     1       1.652   0.873   0.598  1.00  0.00     0.021 A 
ATOM     17  C   UNL     1       2.300   2.272  -1.261  1.00  0.00     0.021 A 
ATOM     18  C   UNL     1       2.636   1.566  -0.106  1.00  0.00     0.041 A 
ATOM     19  Cl  UNL     1       4.265   1.553   0.450  1.00  0.00    -0.084 Cl
ENDBRANCH   1  13
TORSDOF 3
ENDMDL
MODEL 5
REMARK VINA RESULT:    -6.120      1.962      5.821
REMARK INTER + INTRA:          -7.675
REMARK INTER:                  -7.051
REMARK INTRA:                  -0.624
REMARK UNBOUND:                -0.481
REMARK SMILES Clc1ccc(C(c2ccc(Cl)cc2)C(Cl)(Cl)Cl)cc1
REMARK SMILES IDX 6 1 14 2 15 3 16 4 17 5 5 6 4 7 18 8 3 9 19 10 2 11 1 12
REMARK SMILES IDX 7 13 8 14 13 15 9 16 12 17 10 18 11 19
REMARK H PARENT
REMARK Flexibility Score: inf
ROOT
ATOM      1  C   UNL     1      -1.906   3.110  -1.976  1.00  0.00     0.101 C 
ENDROOT
BRANCH   1   2
ATOM      2  C   UNL     1      -2.661   4.316  -1.274  1.00  0.00     0.201 C 
ATOM      3  Cl  UNL     1      -3.641   3.843   0.151  1.00  0.00    -0.083 Cl
ATOM      4  Cl  UNL     1      -3.812   5.072  -2.455  1.00  0.00    -0.083 Cl
ATOM      5  Cl  UNL     1      -1.531   5.631  -0.773  1.00  0.00    -0.083 Cl
ENDBRANCH   1   2
BRANCH   1   6
ATOM      6  C   UNL     1      -2.781   2.060  -2.571  1.00  0.00    -0.036 A 
ATOM      7  C   UNL     1      -2.391   1.409  -3.741  1.00  0.00     0.006 A 
ATOM      8  C   UNL     1      -3.990   1.728  -1.958  1.00  0.00     0.006 A 
ATOM      9  C   UNL     1      -3.210   0.427  -4.299  1.00  0.00     0.021 A 
ATOM     10  C   UNL     1      -4.808   0.746  -2.515  1.00  0.00     0.021 A 
ATOM     11  C   UNL     1      -4.418   0.095  -3.686  1.00  0.00     0.041 A 
ATOM     12  Cl  UNL     1      -5.429  -1.116  -4.374  1.00  0.00    -0.084 Cl
ENDBRANCH   1   6
BRANCH   1  13
ATOM     13  C   UNL     1      -0.694   2.520  -1.212  1.00  0.00    -0.036 A 
ATOM     14  C   UNL     1      -0.943   1.787  -0.085  1.00  0.00     0.006 A 
ATOM     15  C   UNL     1       0.556   2.766  -1.707  1.00  0.00     0.006 A 
ATOM     16  C   UNL     1       0.148   1.257   0.603  1.00  0.00     0.021 A 
ATOM     17  C   UNL     1       1.647   2.236  -1.018  1.00  0.00     0.021 A 
ATOM     18  C   UNL     1       1.443   1.481   0.136  1.00  0.00     0.041 A 
ATOM     19  Cl  UNL     1       2.790   0.827   0.986  1.00  0.00    -0.084 Cl
ENDBRANCH   1  13
TORSDOF 3
ENDMDL
