MODEL 1
REMARK VINA RESULT:     2.386      0.000      0.000
REMARK INTER + INTRA:          -3.743
REMARK INTER:                  -0.001
REMARK INTRA:                  -3.743
REMARK CONF_INDEPENDENT:        2.386
REMARK UNBOUND:                -3.743
REMARK SMILES CC1(C)C(C=C(Br)Br)C1C(=O)OC(C#N)c1cccc(Oc2ccccc2)c1
REMARK SMILES IDX 13 1 12 2 10 3 11 4 9 5 4 6 2 7 1 8 3 9 5 10 7 11 6 12 8 13
REMARK SMILES IDX 16 14 28 15 17 16 20 17 18 18 19 19 21 20 22 21 23 22 27 23
REMARK SMILES IDX 24 24 26 25 25 26 14 27 15 28
REMARK H PARENT
REMARK Flexibility Score: inf
ROOT
ATOM      1  C   UNL     1      -3.894  -1.446   2.426  1.00  0.00     0.309 C
ENDROOT
BRANCH   1   2
ATOM      2  O   UNL     1      -3.397  -0.923   3.665  1.00  0.00    -0.442 OA
BRANCH   2   3
ATOM      3  C   UNL     1      -2.258  -1.506   4.128  1.00  0.00     0.311 C
ATOM      4  O   UNL     1      -2.147  -2.621   4.616  1.00  0.00    -0.252 OA
BRANCH   3   5
ATOM      5  C   UNL     1      -1.087  -0.603   3.975  1.00  0.00     0.113 C
ATOM      6  C   UNL     1      -0.122  -0.875   2.867  1.00  0.00     0.035 C
ATOM      7  C   UNL     1       0.287  -1.100   4.293  1.00  0.00    -0.014 C
ATOM      8  C   UNL     1       0.472  -2.513   4.736  1.00  0.00     0.012 C
ATOM      9  C   UNL     1       1.217  -0.140   4.956  1.00  0.00     0.012 C
BRANCH   6  10
ATOM     10  C   UNL     1      -0.380  -2.003   1.985  1.00  0.00     0.001 C
ATOM     11  Br  UNL     1       1.051  -0.906  -0.212  1.00  0.00    -0.043 Br
ATOM     12  C   UNL     1       0.023  -2.167   0.714  1.00  0.00     0.057 C
ATOM     13  Br  UNL     1      -0.423  -3.712  -0.251  1.00  0.00    -0.043 Br
ENDBRANCH   6  10
ENDBRANCH   3   5
ENDBRANCH   2   3
ENDBRANCH   1   2
BRANCH   1  14
ATOM     14  C   UNL     1      -3.327  -0.675   1.284  1.00  0.00     0.011 A
ATOM     15  C   UNL     1      -2.773   0.588   1.501  1.00  0.00     0.055 A
ATOM     16  C   UNL     1      -3.347  -1.216  -0.001  1.00  0.00     0.009 A
ATOM     17  C   UNL     1      -2.242   1.309   0.432  1.00  0.00     0.127 A
ATOM     18  C   UNL     1      -2.815  -0.493  -1.070  1.00  0.00     0.004 A
ATOM     19  C   UNL     1      -2.264   0.769  -0.854  1.00  0.00     0.047 A
BRANCH  17  20
ATOM     20  O   UNL     1      -1.703   2.541   0.643  1.00  0.00    -0.457 OA
BRANCH  20  21
ATOM     21  C   UNL     1      -0.687   2.648   1.578  1.00  0.00     0.127 A
ATOM     22  C   UNL     1       0.608   2.344   1.203  1.00  0.00     0.047 A
ATOM     23  C   UNL     1      -0.995   3.056   2.864  1.00  0.00     0.047 A
ATOM     24  C   UNL     1       1.632   2.451   2.145  1.00  0.00     0.004 A
ATOM     25  C   UNL     1       0.027   3.162   3.806  1.00  0.00     0.004 A
ATOM     26  C   UNL     1       1.341   2.861   3.447  1.00  0.00     0.000 A
ENDBRANCH  20  21
ENDBRANCH  17  20
ENDBRANCH   1  14
BRANCH   1  27
ATOM     27  C   UNL     1      -3.586  -2.889   2.346  1.00  0.00     0.113 C
ATOM     28  N   UNL     1      -3.347  -4.022   2.272  1.00  0.00    -0.194 NA
ENDBRANCH   1  27
TORSDOF 8
ENDMDL
MODEL 2
REMARK VINA RESULT:     2.386      4.756      7.103
REMARK INTER + INTRA:          -3.743
REMARK INTER:                  -0.001
REMARK INTRA:                  -3.742
REMARK CONF_INDEPENDENT:        2.386
REMARK UNBOUND:                -3.742
REMARK SMILES CC1(C)C(C=C(Br)Br)C1C(=O)OC(C#N)c1cccc(Oc2ccccc2)c1
REMARK SMILES IDX 13 1 12 2 10 3 11 4 9 5 4 6 2 7 1 8 3 9 5 10 7 11 6 12 8 13
REMARK SMILES IDX 16 14 28 15 17 16 20 17 18 18 19 19 21 20 22 21 23 22 27 23
REMARK SMILES IDX 24 24 26 25 25 26 14 27 15 28
REMARK H PARENT
REMARK Flexibility Score: inf
ROOT
ATOM      1  C   UNL     1      -2.397   1.483  -4.644  1.00  0.00     0.309 C
ENDROOT
BRANCH   1   2
ATOM      2  O   UNL     1      -3.751   1.475  -4.173  1.00  0.00    -0.442 OA
BRANCH   2   3
ATOM      3  C   UNL     1      -3.910   1.136  -2.866  1.00  0.00     0.311 C
ATOM      4  O   UNL     1      -3.789   0.023  -2.373  1.00  0.00    -0.252 OA
BRANCH   3   5
ATOM      5  C   UNL     1      -4.266   2.318  -2.039  1.00  0.00     0.113 C
ATOM      6  C   UNL     1      -3.205   2.932  -1.184  1.00  0.00     0.035 C
ATOM      7  C   UNL     1      -4.347   2.193  -0.551  1.00  0.00    -0.014 C
ATOM      8  C   UNL     1      -4.041   0.882   0.094  1.00  0.00     0.012 C
ATOM      9  C   UNL     1      -5.432   2.955   0.135  1.00  0.00     0.012 C
BRANCH   6  10
ATOM     10  C   UNL     1      -1.872   2.349  -1.210  1.00  0.00     0.001 C
ATOM     11  Br  UNL     1      -0.560   4.748  -0.435  1.00  0.00    -0.043 Br
ATOM     12  C   UNL     1      -0.702   2.950  -0.934  1.00  0.00     0.057 C
ATOM     13  Br  UNL     1       0.916   2.007  -1.029  1.00  0.00    -0.043 Br
ENDBRANCH   6  10
ENDBRANCH   3   5
ENDBRANCH   2   3
ENDBRANCH   1   2
BRANCH   1  14
ATOM     14  C   UNL     1      -1.807   2.841  -4.475  1.00  0.00     0.011 A
ATOM     15  C   UNL     1      -2.640   3.946  -4.294  1.00  0.00     0.055 A
ATOM     16  C   UNL     1      -0.423   3.008  -4.497  1.00  0.00     0.009 A
ATOM     17  C   UNL     1      -2.088   5.216  -4.135  1.00  0.00     0.127 A
ATOM     18  C   UNL     1       0.129   4.279  -4.338  1.00  0.00     0.004 A
ATOM     19  C   UNL     1      -0.703   5.384  -4.158  1.00  0.00     0.047 A
BRANCH  17  20
ATOM     20  O   UNL     1      -2.900   6.295  -3.958  1.00  0.00    -0.457 OA
BRANCH  20  21
ATOM     21  C   UNL     1      -3.804   6.255  -2.910  1.00  0.00     0.127 A
ATOM     22  C   UNL     1      -3.378   6.592  -1.639  1.00  0.00     0.047 A
ATOM     23  C   UNL     1      -5.111   5.878  -3.163  1.00  0.00     0.047 A
ATOM     24  C   UNL     1      -4.289   6.551  -0.583  1.00  0.00     0.004 A
ATOM     25  C   UNL     1      -6.022   5.836  -2.107  1.00  0.00     0.004 A
ATOM     26  C   UNL     1      -5.611   6.173  -0.817  1.00  0.00     0.000 A
ENDBRANCH  20  21
ENDBRANCH  17  20
ENDBRANCH   1  14
BRANCH   1  27
ATOM     27  C   UNL     1      -1.628   0.437  -3.939  1.00  0.00     0.113 C
ATOM     28  N   UNL     1      -1.021  -0.377  -3.377  1.00  0.00    -0.194 NA
ENDBRANCH   1  27
TORSDOF 8
ENDMDL
MODEL 3
REMARK VINA RESULT:     2.386      5.675      6.875
REMARK INTER + INTRA:          -3.743
REMARK INTER:                  -0.001
REMARK INTRA:                  -3.743
REMARK CONF_INDEPENDENT:        2.386
REMARK UNBOUND:                -3.743
REMARK SMILES CC1(C)C(C=C(Br)Br)C1C(=O)OC(C#N)c1cccc(Oc2ccccc2)c1
REMARK SMILES IDX 13 1 12 2 10 3 11 4 9 5 4 6 2 7 1 8 3 9 5 10 7 11 6 12 8 13
REMARK SMILES IDX 16 14 28 15 17 16 20 17 18 18 19 19 21 20 22 21 23 22 27 23
REMARK SMILES IDX 24 24 26 25 25 26 14 27 15 28
REMARK H PARENT
REMARK Flexibility Score: inf
ROOT
ATOM      1  C   UNL     1      -0.255  -4.588  -2.314  1.00  0.00     0.309 C
ENDROOT
BRANCH   1   2
ATOM      2  O   UNL     1       0.585  -3.703  -1.560  1.00  0.00    -0.442 OA
BRANCH   2   3
ATOM      3  C   UNL     1       1.799  -3.442  -2.113  1.00  0.00     0.311 C
ATOM      4  O   UNL     1       2.755  -4.201  -2.185  1.00  0.00    -0.252 OA
BRANCH   3   5
ATOM      5  C   UNL     1       1.861  -2.060  -2.656  1.00  0.00     0.113 C
ATOM      6  C   UNL     1       1.758  -1.874  -4.136  1.00  0.00     0.035 C
ATOM      7  C   UNL     1       3.058  -1.614  -3.433  1.00  0.00    -0.014 C
ATOM      8  C   UNL     1       4.173  -2.576  -3.680  1.00  0.00     0.012 C
ATOM      9  C   UNL     1       3.518  -0.210  -3.223  1.00  0.00     0.012 C
BRANCH   6  10
ATOM     10  C   UNL     1       1.593  -3.054  -4.971  1.00  0.00     0.001 C
ATOM     11  Br  UNL     1       0.317  -1.653  -7.091  1.00  0.00    -0.043 Br
ATOM     12  C   UNL     1       1.031  -3.131  -6.190  1.00  0.00     0.057 C
ATOM     13  Br  UNL     1       0.918  -4.765  -7.102  1.00  0.00    -0.043 Br
ENDBRANCH   6  10
ENDBRANCH   3   5
ENDBRANCH   2   3
ENDBRANCH   1   2
BRANCH   1  14
ATOM     14  C   UNL     1      -1.119  -3.803  -3.241  1.00  0.00     0.011 A
ATOM     15  C   UNL     1      -1.318  -2.439  -3.023  1.00  0.00     0.055 A
ATOM     16  C   UNL     1      -1.727  -4.431  -4.328  1.00  0.00     0.009 A
ATOM     17  C   UNL     1      -2.125  -1.705  -3.891  1.00  0.00     0.127 A
ATOM     18  C   UNL     1      -2.535  -3.696  -5.195  1.00  0.00     0.004 A
ATOM     19  C   UNL     1      -2.735  -2.333  -4.977  1.00  0.00     0.047 A
BRANCH  17  20
ATOM     20  O   UNL     1      -2.320  -0.374  -3.678  1.00  0.00    -0.457 OA
BRANCH  20  21
ATOM     21  C   UNL     1      -1.199   0.434  -3.590  1.00  0.00     0.127 A
ATOM     22  C   UNL     1      -0.606   0.892  -4.752  1.00  0.00     0.047 A
ATOM     23  C   UNL     1      -0.702   0.763  -2.342  1.00  0.00     0.047 A
ATOM     24  C   UNL     1       0.524   1.706  -4.665  1.00  0.00     0.004 A
ATOM     25  C   UNL     1       0.428   1.577  -2.254  1.00  0.00     0.004 A
ATOM     26  C   UNL     1       1.040   2.049  -3.415  1.00  0.00     0.000 A
ENDBRANCH  20  21
ENDBRANCH  17  20
ENDBRANCH   1  14
BRANCH   1  27
ATOM     27  C   UNL     1       0.586  -5.576  -3.021  1.00  0.00     0.113 C
ATOM     28  N   UNL     1       1.244  -6.347  -3.586  1.00  0.00    -0.194 NA
ENDBRANCH   1  27
TORSDOF 8
ENDMDL
MODEL 4
REMARK VINA RESULT:     2.386      2.872      5.669
REMARK INTER + INTRA:          -3.742
REMARK INTER:                  -0.001
REMARK INTRA:                  -3.741
REMARK CONF_INDEPENDENT:        2.386
REMARK UNBOUND:                -3.741
REMARK SMILES CC1(C)C(C=C(Br)Br)C1C(=O)OC(C#N)c1cccc(Oc2ccccc2)c1
REMARK SMILES IDX 13 1 12 2 10 3 11 4 9 5 4 6 2 7 1 8 3 9 5 10 7 11 6 12 8 13
REMARK SMILES IDX 16 14 28 15 17 16 20 17 18 18 19 19 21 20 22 21 23 22 27 23
REMARK SMILES IDX 24 24 26 25 25 26 14 27 15 28
REMARK H PARENT
REMARK Flexibility Score: inf
ROOT
ATOM      1  C   UNL     1      -3.961  -0.741  -0.387  1.00  0.00     0.309 C
ENDROOT
BRANCH   1   2
ATOM      2  O   UNL     1      -3.024  -1.436  -1.221  1.00  0.00    -0.442 OA
BRANCH   2   3
ATOM      3  C   UNL     1      -1.768  -0.914  -1.244  1.00  0.00     0.311 C
ATOM      4  O   UNL     1      -1.410   0.119  -1.793  1.00  0.00    -0.252 OA
BRANCH   3   5
ATOM      5  C   UNL     1      -0.812  -1.768  -0.494  1.00  0.00     0.113 C
ATOM      6  C   UNL     1      -0.384  -1.326   0.869  1.00  0.00     0.035 C
ATOM      7  C   UNL     1       0.591  -1.304  -0.272  1.00  0.00    -0.014 C
ATOM      8  C   UNL     1       1.012   0.033  -0.785  1.00  0.00     0.012 C
ATOM      9  C   UNL     1       1.667  -2.336  -0.346  1.00  0.00     0.012 C
BRANCH   6  10
ATOM     10  C   UNL     1      -0.931  -0.085   1.397  1.00  0.00     0.001 C
ATOM     11  Br  UNL     1      -0.598  -0.833   4.119  1.00  0.00    -0.043 Br
ATOM     12  C   UNL     1      -1.086   0.266   2.685  1.00  0.00     0.057 C
ATOM     13  Br  UNL     1      -1.819   1.928   3.153  1.00  0.00    -0.043 Br
ENDBRANCH   6  10
ENDBRANCH   3   5
ENDBRANCH   2   3
ENDBRANCH   1   2
BRANCH   1  14
ATOM     14  C   UNL     1      -3.961  -1.334   0.981  1.00  0.00     0.011 A
ATOM     15  C   UNL     1      -3.430  -2.607   1.190  1.00  0.00     0.055 A
ATOM     16  C   UNL     1      -4.491  -0.614   2.052  1.00  0.00     0.009 A
ATOM     17  C   UNL     1      -3.430  -3.160   2.470  1.00  0.00     0.127 A
ATOM     18  C   UNL     1      -4.490  -1.169   3.332  1.00  0.00     0.004 A
ATOM     19  C   UNL     1      -3.960  -2.442   3.541  1.00  0.00     0.047 A
BRANCH  17  20
ATOM     20  O   UNL     1      -2.912  -4.403   2.675  1.00  0.00    -0.457 OA
BRANCH  20  21
ATOM     21  C   UNL     1      -1.608  -4.631   2.270  1.00  0.00     0.127 A
ATOM     22  C   UNL     1      -0.569  -4.257   3.102  1.00  0.00     0.047 A
ATOM     23  C   UNL     1      -1.377  -5.228   1.043  1.00  0.00     0.047 A
ATOM     24  C   UNL     1       0.746  -4.487   2.694  1.00  0.00     0.004 A
ATOM     25  C   UNL     1      -0.064  -5.457   0.635  1.00  0.00     0.004 A
ATOM     26  C   UNL     1       0.998  -5.087   1.460  1.00  0.00     0.000 A
ENDBRANCH  20  21
ENDBRANCH  17  20
ENDBRANCH   1  14
BRANCH   1  27
ATOM     27  C   UNL     1      -3.637   0.700  -0.382  1.00  0.00     0.113 C
ATOM     28  N   UNL     1      -3.375   1.830  -0.371  1.00  0.00    -0.194 NA
ENDBRANCH   1  27
TORSDOF 8
ENDMDL
MODEL 5
REMARK VINA RESULT:     2.386      5.402      8.019
REMARK INTER + INTRA:          -3.744
REMARK INTER:                  -0.001
REMARK INTRA:                  -3.743
REMARK CONF_INDEPENDENT:        2.386
REMARK UNBOUND:                -3.743
REMARK SMILES CC1(C)C(C=C(Br)Br)C1C(=O)OC(C#N)c1cccc(Oc2ccccc2)c1
REMARK SMILES IDX 13 1 12 2 10 3 11 4 9 5 4 6 2 7 1 8 3 9 5 10 7 11 6 12 8 13
REMARK SMILES IDX 16 14 28 15 17 16 20 17 18 18 19 19 21 20 22 21 23 22 27 23
REMARK SMILES IDX 24 24 26 25 25 26 14 27 15 28
REMARK H PARENT
REMARK Flexibility Score: inf
ROOT
ATOM      1  C   UNL     1       4.079   2.382  -2.024  1.00  0.00     0.309 C
ENDROOT
BRANCH   1   2
ATOM      2  O   UNL     1       3.668   2.150  -3.379  1.00  0.00    -0.442 OA
BRANCH   2   3
ATOM      3  C   UNL     1       2.616   1.303  -3.530  1.00  0.00     0.311 C
ATOM      4  O   UNL     1       2.619   0.089  -3.380  1.00  0.00    -0.252 OA
BRANCH   3   5
ATOM      5  C   UNL     1       1.383   2.035  -3.921  1.00  0.00     0.113 C
ATOM      6  C   UNL     1       0.338   2.271  -2.878  1.00  0.00     0.035 C
ATOM      7  C   UNL     1       0.077   1.311  -4.002  1.00  0.00    -0.014 C
ATOM      8  C   UNL     1       0.020  -0.141  -3.661  1.00  0.00     0.012 C
ATOM      9  C   UNL     1      -0.846   1.700  -5.108  1.00  0.00     0.012 C
BRANCH   6  10
ATOM     10  C   UNL     1       0.582   1.782  -1.530  1.00  0.00     0.001 C
ATOM     11  Br  UNL     1      -1.137   3.674  -0.287  1.00  0.00    -0.043 Br
ATOM     12  C   UNL     1       0.064   2.241  -0.378  1.00  0.00     0.057 C
ATOM     13  Br  UNL     1       0.516   1.460   1.266  1.00  0.00    -0.043 Br
ENDBRANCH   6  10
ENDBRANCH   3   5
ENDBRANCH   2   3
ENDBRANCH   1   2
BRANCH   1  14
ATOM     14  C   UNL     1       3.359   3.564  -1.470  1.00  0.00     0.011 A
ATOM     15  C   UNL     1       2.752   4.479  -2.331  1.00  0.00     0.055 A
ATOM     16  C   UNL     1       3.289   3.754  -0.090  1.00  0.00     0.009 A
ATOM     17  C   UNL     1       2.079   5.584  -1.812  1.00  0.00     0.127 A
ATOM     18  C   UNL     1       2.615   4.859   0.429  1.00  0.00     0.004 A
ATOM     19  C   UNL     1       2.010   5.775  -0.432  1.00  0.00     0.047 A
BRANCH  17  20
ATOM     20  O   UNL     1       1.488   6.478  -2.652  1.00  0.00    -0.457 OA
BRANCH  20  21
ATOM     21  C   UNL     1       0.559   5.993  -3.558  1.00  0.00     0.127 A
ATOM     22  C   UNL     1      -0.744   5.790  -3.144  1.00  0.00     0.047 A
ATOM     23  C   UNL     1       0.960   5.724  -4.855  1.00  0.00     0.047 A
ATOM     24  C   UNL     1      -1.680   5.301  -4.056  1.00  0.00     0.004 A
ATOM     25  C   UNL     1       0.026   5.234  -5.767  1.00  0.00     0.004 A
ATOM     26  C   UNL     1      -1.294   5.024  -5.368  1.00  0.00     0.000 A
ENDBRANCH  20  21
ENDBRANCH  17  20
ENDBRANCH   1  14
BRANCH   1  27
ATOM     27  C   UNL     1       3.857   1.157  -1.230  1.00  0.00     0.113 C
ATOM     28  N   UNL     1       3.677   0.201  -0.597  1.00  0.00    -0.194 NA
ENDBRANCH   1  27
TORSDOF 8
ENDMDL
MODEL 6
REMARK VINA RESULT:     2.386      5.139      7.192
REMARK INTER + INTRA:          -3.744
REMARK INTER:                  -0.000
REMARK INTRA:                  -3.744
REMARK CONF_INDEPENDENT:        2.386
REMARK UNBOUND:                -3.744
REMARK SMILES CC1(C)C(C=C(Br)Br)C1C(=O)OC(C#N)c1cccc(Oc2ccccc2)c1
REMARK SMILES IDX 13 1 12 2 10 3 11 4 9 5 4 6 2 7 1 8 3 9 5 10 7 11 6 12 8 13
REMARK SMILES IDX 16 14 28 15 17 16 20 17 18 18 19 19 21 20 22 21 23 22 27 23
REMARK SMILES IDX 24 24 26 25 25 26 14 27 15 28
REMARK H PARENT
REMARK Flexibility Score: inf
ROOT
ATOM      1  C   UNL     1       0.928   6.323  -1.730  1.00  0.00     0.309 C
ENDROOT
BRANCH   1   2
ATOM      2  O   UNL     1      -0.316   6.793  -1.194  1.00  0.00    -0.442 OA
BRANCH   2   3
ATOM      3  C   UNL     1      -1.354   5.919  -1.279  1.00  0.00     0.311 C
ATOM      4  O   UNL     1      -1.970   5.601  -2.286  1.00  0.00    -0.252 OA
BRANCH   3   5
ATOM      5  C   UNL     1      -1.692   5.349   0.051  1.00  0.00     0.113 C
ATOM      6  C   UNL     1      -1.256   3.952   0.356  1.00  0.00     0.035 C
ATOM      7  C   UNL     1      -2.711   4.260   0.162  1.00  0.00    -0.014 C
ATOM      8  C   UNL     1      -3.362   3.736  -1.074  1.00  0.00     0.012 C
ATOM      9  C   UNL     1      -3.623   4.303   1.343  1.00  0.00     0.012 C
BRANCH   6  10
ATOM     10  C   UNL     1      -0.513   3.222  -0.660  1.00  0.00     0.001 C
ATOM     11  Br  UNL     1       0.793   1.513   1.199  1.00  0.00    -0.043 Br
ATOM     12  C   UNL     1       0.354   2.211  -0.482  1.00  0.00     0.057 C
ATOM     13  Br  UNL     1       1.211   1.402  -1.941  1.00  0.00    -0.043 Br
ENDBRANCH   6  10
ENDBRANCH   3   5
ENDBRANCH   2   3
ENDBRANCH   1   2
BRANCH   1  14
ATOM     14  C   UNL     1       1.723   5.657  -0.660  1.00  0.00     0.011 A
ATOM     15  C   UNL     1       1.421   5.891   0.682  1.00  0.00     0.055 A
ATOM     16  C   UNL     1       2.768   4.798  -1.000  1.00  0.00     0.009 A
ATOM     17  C   UNL     1       2.165   5.267   1.683  1.00  0.00     0.127 A
ATOM     18  C   UNL     1       3.512   4.174   0.001  1.00  0.00     0.004 A
ATOM     19  C   UNL     1       3.211   4.409   1.343  1.00  0.00     0.047 A
BRANCH  17  20
ATOM     20  O   UNL     1       1.872   5.495   2.992  1.00  0.00    -0.457 OA
BRANCH  20  21
ATOM     21  C   UNL     1       0.576   5.248   3.414  1.00  0.00     0.127 A
ATOM     22  C   UNL     1       0.211   3.956   3.745  1.00  0.00     0.047 A
ATOM     23  C   UNL     1      -0.319   6.300   3.494  1.00  0.00     0.047 A
ATOM     24  C   UNL     1      -1.095   3.706   4.169  1.00  0.00     0.004 A
ATOM     25  C   UNL     1      -1.624   6.050   3.917  1.00  0.00     0.004 A
ATOM     26  C   UNL     1      -2.012   4.754   4.257  1.00  0.00     0.000 A
ENDBRANCH  20  21
ENDBRANCH  17  20
ENDBRANCH   1  14
BRANCH   1  27
ATOM     27  C   UNL     1       0.660   5.431  -2.877  1.00  0.00     0.113 C
ATOM     28  N   UNL     1       0.452   4.722  -3.772  1.00  0.00    -0.194 NA
ENDBRANCH   1  27
TORSDOF 8
ENDMDL
MODEL 7
REMARK VINA RESULT:     2.386      4.491      6.062
REMARK INTER + INTRA:          -3.744
REMARK INTER:                  -0.000
REMARK INTRA:                  -3.743
REMARK CONF_INDEPENDENT:        2.386
REMARK UNBOUND:                -3.743
REMARK SMILES CC1(C)C(C=C(Br)Br)C1C(=O)OC(C#N)c1cccc(Oc2ccccc2)c1
REMARK SMILES IDX 13 1 12 2 10 3 11 4 9 5 4 6 2 7 1 8 3 9 5 10 7 11 6 12 8 13
REMARK SMILES IDX 16 14 28 15 17 16 20 17 18 18 19 19 21 20 22 21 23 22 27 23
REMARK SMILES IDX 24 24 26 25 25 26 14 27 15 28
REMARK H PARENT
REMARK Flexibility Score: inf
ROOT
ATOM      1  C   UNL     1       0.428  -4.694  -2.768  1.00  0.00     0.309 C
ENDROOT
BRANCH   1   2
ATOM      2  O   UNL     1      -0.235  -3.520  -2.280  1.00  0.00    -0.442 OA
BRANCH   2   3
ATOM      3  C   UNL     1      -0.512  -3.521  -0.948  1.00  0.00     0.311 C
ATOM      4  O   UNL     1      -1.367  -4.179  -0.373  1.00  0.00    -0.252 OA
BRANCH   3   5
ATOM      5  C   UNL     1       0.378  -2.587  -0.210  1.00  0.00     0.113 C
ATOM      6  C   UNL     1       1.506  -3.162   0.584  1.00  0.00     0.035 C
ATOM      7  C   UNL     1       0.335  -2.537   1.284  1.00  0.00    -0.014 C
ATOM      8  C   UNL     1      -0.587  -3.449   2.023  1.00  0.00     0.012 C
ATOM      9  C   UNL     1       0.483  -1.195   1.921  1.00  0.00     0.012 C
BRANCH   6  10
ATOM     10  C   UNL     1       1.684  -4.606   0.589  1.00  0.00     0.001 C
ATOM     11  Br  UNL     1       4.468  -4.488   1.154  1.00  0.00    -0.043 Br
ATOM     12  C   UNL     1       2.817  -5.297   0.801  1.00  0.00     0.057 C
ATOM     13  Br  UNL     1       2.828  -7.172   0.762  1.00  0.00    -0.043 Br
ENDBRANCH   6  10
ENDBRANCH   3   5
ENDBRANCH   2   3
ENDBRANCH   1   2
BRANCH   1  14
ATOM     14  C   UNL     1       1.905  -4.505  -2.710  1.00  0.00     0.011 A
ATOM     15  C   UNL     1       2.441  -3.221  -2.602  1.00  0.00     0.055 A
ATOM     16  C   UNL     1       2.753  -5.612  -2.760  1.00  0.00     0.009 A
ATOM     17  C   UNL     1       3.823  -3.045  -2.547  1.00  0.00     0.127 A
ATOM     18  C   UNL     1       4.135  -5.435  -2.705  1.00  0.00     0.004 A
ATOM     19  C   UNL     1       4.671  -4.152  -2.599  1.00  0.00     0.047 A
BRANCH  17  20
ATOM     20  O   UNL     1       4.347  -1.793  -2.443  1.00  0.00    -0.457 OA
BRANCH  20  21
ATOM     21  C   UNL     1       3.925  -1.004  -1.385  1.00  0.00     0.127 A
ATOM     22  C   UNL     1       4.522  -1.161  -0.148  1.00  0.00     0.047 A
ATOM     23  C   UNL     1       2.916  -0.081  -1.594  1.00  0.00     0.047 A
ATOM     24  C   UNL     1       4.097  -0.368   0.918  1.00  0.00     0.004 A
ATOM     25  C   UNL     1       2.490   0.712  -0.529  1.00  0.00     0.004 A
ATOM     26  C   UNL     1       3.081   0.570   0.727  1.00  0.00     0.000 A
ENDBRANCH  20  21
ENDBRANCH  17  20
ENDBRANCH   1  14
BRANCH   1  27
ATOM     27  C   UNL     1      -0.025  -5.869  -1.996  1.00  0.00     0.113 C
ATOM     28  N   UNL     1      -0.371  -6.795  -1.389  1.00  0.00    -0.194 NA
ENDBRANCH   1  27
TORSDOF 8
ENDMDL
MODEL 8
REMARK VINA RESULT:     2.386      2.645      4.978
REMARK INTER + INTRA:          -3.743
REMARK INTER:                  -0.000
REMARK INTRA:                  -3.743
REMARK CONF_INDEPENDENT:        2.386
REMARK UNBOUND:                -3.743
REMARK SMILES CC1(C)C(C=C(Br)Br)C1C(=O)OC(C#N)c1cccc(Oc2ccccc2)c1
REMARK SMILES IDX 13 1 12 2 10 3 11 4 9 5 4 6 2 7 1 8 3 9 5 10 7 11 6 12 8 13
REMARK SMILES IDX 16 14 28 15 17 16 20 17 18 18 19 19 21 20 22 21 23 22 27 23
REMARK SMILES IDX 24 24 26 25 25 26 14 27 15 28
REMARK H PARENT
REMARK Flexibility Score: inf
ROOT
ATOM      1  C   UNL     1      -4.138   0.715   0.954  1.00  0.00     0.309 C
ENDROOT
BRANCH   1   2
ATOM      2  O   UNL     1      -3.599   1.665   0.024  1.00  0.00    -0.442 OA
BRANCH   2   3
ATOM      3  C   UNL     1      -2.455   2.283   0.422  1.00  0.00     0.311 C
ATOM      4  O   UNL     1      -2.343   3.144   1.283  1.00  0.00    -0.252 OA
BRANCH   3   5
ATOM      5  C   UNL     1      -1.278   1.784  -0.336  1.00  0.00     0.113 C
ATOM      6  C   UNL     1      -0.352   0.827   0.343  1.00  0.00     0.035 C
ATOM      7  C   UNL     1       0.098   2.227   0.043  1.00  0.00    -0.014 C
ATOM      8  C   UNL     1       0.280   3.150   1.202  1.00  0.00     0.012 C
ATOM      9  C   UNL     1       1.062   2.472  -1.070  1.00  0.00     0.012 C
BRANCH   6  10
ATOM     10  C   UNL     1      -0.652   0.424   1.709  1.00  0.00     0.001 C
ATOM     11  Br  UNL     1       0.729  -2.054   1.522  1.00  0.00    -0.043 Br
ATOM     12  C   UNL     1      -0.289  -0.709   2.334  1.00  0.00     0.057 C
ATOM     13  Br  UNL     1      -0.785  -1.034   4.113  1.00  0.00    -0.043 Br
ENDBRANCH   6  10
ENDBRANCH   3   5
ENDBRANCH   2   3
ENDBRANCH   1   2
BRANCH   1  14
ATOM     14  C   UNL     1      -3.599  -0.643   0.663  1.00  0.00     0.011 A
ATOM     15  C   UNL     1      -3.024  -0.915  -0.579  1.00  0.00     0.055 A
ATOM     16  C   UNL     1      -3.668  -1.643   1.633  1.00  0.00     0.009 A
ATOM     17  C   UNL     1      -2.520  -2.186  -0.850  1.00  0.00     0.127 A
ATOM     18  C   UNL     1      -3.164  -2.915   1.361  1.00  0.00     0.004 A
ATOM     19  C   UNL     1      -2.590  -3.187   0.119  1.00  0.00     0.047 A
BRANCH  17  20
ATOM     20  O   UNL     1      -1.959  -2.452  -2.062  1.00  0.00    -0.457 OA
BRANCH  20  21
ATOM     21  C   UNL     1      -0.915  -1.643  -2.480  1.00  0.00     0.127 A
ATOM     22  C   UNL     1       0.365  -1.908  -2.028  1.00  0.00     0.047 A
ATOM     23  C   UNL     1      -1.180  -0.590  -3.337  1.00  0.00     0.047 A
ATOM     24  C   UNL     1       1.417  -1.093  -2.448  1.00  0.00     0.004 A
ATOM     25  C   UNL     1      -0.129   0.225  -3.756  1.00  0.00     0.004 A
ATOM     26  C   UNL     1       1.169  -0.027  -3.313  1.00  0.00     0.000 A
ENDBRANCH  20  21
ENDBRANCH  17  20
ENDBRANCH   1  14
BRANCH   1  27
ATOM     27  C   UNL     1      -3.845   1.160   2.332  1.00  0.00     0.113 C
ATOM     28  N   UNL     1      -3.608   1.500   3.416  1.00  0.00    -0.194 NA
ENDBRANCH   1  27
TORSDOF 8
ENDMDL
MODEL 9
REMARK VINA RESULT:     2.386      2.866      4.919
REMARK INTER + INTRA:          -3.742
REMARK INTER:                  -0.000
REMARK INTRA:                  -3.741
REMARK CONF_INDEPENDENT:        2.386
REMARK UNBOUND:                -3.741
REMARK SMILES CC1(C)C(C=C(Br)Br)C1C(=O)OC(C#N)c1cccc(Oc2ccccc2)c1
REMARK SMILES IDX 13 1 12 2 10 3 11 4 9 5 4 6 2 7 1 8 3 9 5 10 7 11 6 12 8 13
REMARK SMILES IDX 16 14 28 15 17 16 20 17 18 18 19 19 21 20 22 21 23 22 27 23
REMARK SMILES IDX 24 24 26 25 25 26 14 27 15 28
REMARK H PARENT
REMARK Flexibility Score: inf
ROOT
ATOM      1  C   UNL     1      -3.058   2.430   1.177  1.00  0.00     0.309 C
ENDROOT
BRANCH   1   2
ATOM      2  O   UNL     1      -2.292   3.456   0.530  1.00  0.00    -0.442 OA
BRANCH   2   3
ATOM      3  C   UNL     1      -1.275   3.975   1.269  1.00  0.00     0.311 C
ATOM      4  O   UNL     1      -1.370   4.727   2.229  1.00  0.00    -0.252 OA
BRANCH   3   5
ATOM      5  C   UNL     1       0.047   3.516   0.769  1.00  0.00     0.113 C
ATOM      6  C   UNL     1       0.763   2.449   1.534  1.00  0.00     0.035 C
ATOM      7  C   UNL     1       1.291   3.854   1.526  1.00  0.00    -0.014 C
ATOM      8  C   UNL     1       1.190   4.630   2.797  1.00  0.00     0.012 C
ATOM      9  C   UNL     1       2.505   4.183   0.722  1.00  0.00     0.012 C
BRANCH   6  10
ATOM     10  C   UNL     1       0.126   1.906   2.725  1.00  0.00     0.001 C
ATOM     11  Br  UNL     1       1.478  -0.591   2.584  1.00  0.00    -0.043 Br
ATOM     12  C   UNL     1       0.307   0.695   3.278  1.00  0.00     0.057 C
ATOM     13  Br  UNL     1      -0.621   0.190   4.827  1.00  0.00    -0.043 Br
ENDBRANCH   6  10
ENDBRANCH   3   5
ENDBRANCH   2   3
ENDBRANCH   1   2
BRANCH   1  14
ATOM     14  C   UNL     1      -2.481   1.092   0.865  1.00  0.00     0.011 A
ATOM     15  C   UNL     1      -1.618   0.939  -0.221  1.00  0.00     0.055 A
ATOM     16  C   UNL     1      -2.802  -0.009   1.659  1.00  0.00     0.009 A
ATOM     17  C   UNL     1      -1.078  -0.313  -0.513  1.00  0.00     0.127 A
ATOM     18  C   UNL     1      -2.262  -1.261   1.367  1.00  0.00     0.004 A
ATOM     19  C   UNL     1      -1.400  -1.413   0.281  1.00  0.00     0.047 A
BRANCH  17  20
ATOM     20  O   UNL     1      -0.237  -0.462  -1.573  1.00  0.00    -0.457 OA
BRANCH  20  21
ATOM     21  C   UNL     1       0.888   0.345  -1.620  1.00  0.00     0.127 A
ATOM     22  C   UNL     1       2.012  -0.025  -0.904  1.00  0.00     0.047 A
ATOM     23  C   UNL     1       0.859   1.499  -2.382  1.00  0.00     0.047 A
ATOM     24  C   UNL     1       3.146   0.788  -0.950  1.00  0.00     0.004 A
ATOM     25  C   UNL     1       1.991   2.311  -2.428  1.00  0.00     0.004 A
ATOM     26  C   UNL     1       3.135   1.956  -1.714  1.00  0.00     0.000 A
ENDBRANCH  20  21
ENDBRANCH  17  20
ENDBRANCH   1  14
BRANCH   1  27
ATOM     27  C   UNL     1      -3.111   2.701   2.628  1.00  0.00     0.113 C
ATOM     28  N   UNL     1      -3.147   2.905   3.770  1.00  0.00    -0.194 NA
ENDBRANCH   1  27
TORSDOF 8
ENDMDL
