MODEL 1
REMARK VINA RESULT:     2.087      0.000      0.000
REMARK INTER + INTRA:          -3.437
REMARK INTER:                  -0.001
REMARK INTRA:                  -3.436
REMARK CONF_INDEPENDENT:        2.088
REMARK UNBOUND:                -3.436
REMARK SMILES CC1(C)[C@H](C=C(Cl)Cl)[C@H]1C(=O)OCc1cccc(Oc2ccccc2)c1
REMARK SMILES IDX 13 1 12 2 10 3 11 4 9 5 4 6 2 7 1 8 3 9 5 10 7 11 6 12 8 13
REMARK SMILES IDX 14 14 26 15 15 16 18 17 16 18 17 19 19 20 20 21 21 22 25 23
REMARK SMILES IDX 22 24 24 25 23 26
REMARK H PARENT
REMARK Flexibility Score: inf
ROOT
ATOM      1  C   UNL     1      -1.594  -2.826   0.341  1.00  0.00     0.268 C 
ENDROOT
BRANCH   1   2
ATOM      2  O   UNL     1      -1.773  -2.174   1.593  1.00  0.00    -0.461 OA
BRANCH   2   3
ATOM      3  C   UNL     1      -1.144  -2.751   2.658  1.00  0.00     0.310 C 
ATOM      4  O   UNL     1      -1.130  -3.941   2.939  1.00  0.00    -0.252 OA
BRANCH   3   5
ATOM      5  C   UNL     1      -0.436  -1.747   3.492  1.00  0.00     0.113 C 
ATOM      6  C   UNL     1       0.491  -0.788   2.813  1.00  0.00     0.035 C 
ATOM      7  C   UNL     1       1.040  -1.860   3.708  1.00  0.00    -0.014 C 
ATOM      8  C   UNL     1       1.626  -1.433   5.011  1.00  0.00     0.012 C 
ATOM      9  C   UNL     1       1.726  -3.044   3.112  1.00  0.00     0.012 C 
BRANCH   6  10
ATOM     10  C   UNL     1       0.482   0.601   3.247  1.00  0.00     0.011 C 
ATOM     11  Cl  UNL     1      -0.621   1.540   0.975  1.00  0.00    -0.071 Cl
ATOM     12  C   UNL     1       0.042   1.670   2.564  1.00  0.00     0.103 C 
ATOM     13  Cl  UNL     1       0.124   3.249   3.264  1.00  0.00    -0.071 Cl
ENDBRANCH   6  10
ENDBRANCH   3   5
ENDBRANCH   2   3
ENDBRANCH   1   2
BRANCH   1  14
ATOM     14  C   UNL     1      -0.138  -2.913   0.031  1.00  0.00    -0.007 A 
ATOM     15  C   UNL     1       0.596  -1.751  -0.206  1.00  0.00     0.054 A 
ATOM     16  C   UNL     1       0.490  -4.158  -0.020  1.00  0.00     0.007 A 
ATOM     17  C   UNL     1       1.957  -1.834  -0.496  1.00  0.00     0.127 A 
ATOM     18  C   UNL     1       1.852  -4.240  -0.311  1.00  0.00     0.004 A 
ATOM     19  C   UNL     1       2.585  -3.078  -0.548  1.00  0.00     0.047 A 
BRANCH  17  20
ATOM     20  O   UNL     1       2.674  -0.699  -0.728  1.00  0.00    -0.457 OA
BRANCH  20  21
ATOM     21  C   UNL     1       3.070   0.048   0.368  1.00  0.00     0.127 A 
ATOM     22  C   UNL     1       3.624  -0.599   1.459  1.00  0.00     0.047 A 
ATOM     23  C   UNL     1       2.902   1.420   0.344  1.00  0.00     0.047 A 
ATOM     24  C   UNL     1       4.022   0.154   2.563  1.00  0.00     0.004 A 
ATOM     25  C   UNL     1       3.302   2.173   1.449  1.00  0.00     0.004 A 
ATOM     26  C   UNL     1       3.863   1.539   2.558  1.00  0.00     0.000 A 
ENDBRANCH  20  21
ENDBRANCH  17  20
ENDBRANCH   1  14
TORSDOF 7
ENDMDL
MODEL 2
REMARK VINA RESULT:     2.088      3.878      5.823
REMARK INTER + INTRA:          -3.437
REMARK INTER:                  -0.001
REMARK INTRA:                  -3.437
REMARK CONF_INDEPENDENT:        2.088
REMARK UNBOUND:                -3.437
REMARK SMILES CC1(C)[C@H](C=C(Cl)Cl)[C@H]1C(=O)OCc1cccc(Oc2ccccc2)c1
REMARK SMILES IDX 13 1 12 2 10 3 11 4 9 5 4 6 2 7 1 8 3 9 5 10 7 11 6 12 8 13
REMARK SMILES IDX 14 14 26 15 15 16 18 17 16 18 17 19 19 20 20 21 21 22 25 23
REMARK SMILES IDX 22 24 24 25 23 26
REMARK H PARENT
REMARK Flexibility Score: inf
ROOT
ATOM      1  C   UNL     1      -1.083  -3.465   1.107  1.00  0.00     0.268 C 
ENDROOT
BRANCH   1   2
ATOM      2  O   UNL     1      -1.923  -2.554   1.803  1.00  0.00    -0.461 OA
BRANCH   2   3
ATOM      3  C   UNL     1      -1.400  -1.313   2.026  1.00  0.00     0.310 C 
ATOM      4  O   UNL     1      -0.277  -1.060   2.439  1.00  0.00    -0.252 OA
BRANCH   3   5
ATOM      5  C   UNL     1      -2.370  -0.237   1.701  1.00  0.00     0.113 C 
ATOM      6  C   UNL     1      -3.045  -0.270   0.366  1.00  0.00     0.035 C 
ATOM      7  C   UNL     1      -2.029   0.792   0.670  1.00  0.00    -0.014 C 
ATOM      8  C   UNL     1      -2.526   2.189   0.835  1.00  0.00     0.012 C 
ATOM      9  C   UNL     1      -0.672   0.717   0.057  1.00  0.00     0.012 C 
BRANCH   6  10
ATOM     10  C   UNL     1      -4.461   0.061   0.302  1.00  0.00     0.011 C 
ATOM     11  Cl  UNL     1      -5.251  -2.444  -0.299  1.00  0.00    -0.071 Cl
ATOM     12  C   UNL     1      -5.484  -0.765   0.032  1.00  0.00     0.103 C 
ATOM     13  Cl  UNL     1      -7.106  -0.167   0.001  1.00  0.00    -0.071 Cl
ENDBRANCH   6  10
ENDBRANCH   3   5
ENDBRANCH   2   3
ENDBRANCH   1   2
BRANCH   1  14
ATOM     14  C   UNL     1      -0.696  -2.878  -0.209  1.00  0.00    -0.007 A 
ATOM     15  C   UNL     1      -1.666  -2.664  -1.188  1.00  0.00     0.054 A 
ATOM     16  C   UNL     1       0.634  -2.542  -0.458  1.00  0.00     0.007 A 
ATOM     17  C   UNL     1      -1.304  -2.115  -2.418  1.00  0.00     0.127 A 
ATOM     18  C   UNL     1       0.995  -1.993  -1.688  1.00  0.00     0.004 A 
ATOM     19  C   UNL     1       0.026  -1.779  -2.668  1.00  0.00     0.047 A 
BRANCH  17  20
ATOM     20  O   UNL     1      -2.250  -1.906  -3.375  1.00  0.00    -0.457 OA
BRANCH  20  21
ATOM     21  C   UNL     1      -3.061  -0.791  -3.247  1.00  0.00     0.127 A 
ATOM     22  C   UNL     1      -2.485   0.428  -2.933  1.00  0.00     0.047 A 
ATOM     23  C   UNL     1      -4.424  -0.923  -3.435  1.00  0.00     0.047 A 
ATOM     24  C   UNL     1      -3.301   1.551  -2.805  1.00  0.00     0.004 A 
ATOM     25  C   UNL     1      -5.240   0.202  -3.306  1.00  0.00     0.004 A 
ATOM     26  C   UNL     1      -4.678   1.438  -2.991  1.00  0.00     0.000 A 
ENDBRANCH  20  21
ENDBRANCH  17  20
ENDBRANCH   1  14
TORSDOF 7
ENDMDL
MODEL 3
REMARK VINA RESULT:     2.088      2.184      3.110
REMARK INTER + INTRA:          -3.438
REMARK INTER:                  -0.001
REMARK INTRA:                  -3.437
REMARK CONF_INDEPENDENT:        2.088
REMARK UNBOUND:                -3.437
REMARK SMILES CC1(C)[C@H](C=C(Cl)Cl)[C@H]1C(=O)OCc1cccc(Oc2ccccc2)c1
REMARK SMILES IDX 13 1 12 2 10 3 11 4 9 5 4 6 2 7 1 8 3 9 5 10 7 11 6 12 8 13
REMARK SMILES IDX 14 14 26 15 15 16 18 17 16 18 17 19 19 20 20 21 21 22 25 23
REMARK SMILES IDX 22 24 24 25 23 26
REMARK H PARENT
REMARK Flexibility Score: inf
ROOT
ATOM      1  C   UNL     1      -1.885  -1.319  -1.536  1.00  0.00     0.268 C 
ENDROOT
BRANCH   1   2
ATOM      2  O   UNL     1      -1.468  -0.353  -0.581  1.00  0.00    -0.461 OA
BRANCH   2   3
ATOM      3  C   UNL     1      -1.569  -0.728   0.727  1.00  0.00     0.310 C 
ATOM      4  O   UNL     1      -2.526  -1.277   1.256  1.00  0.00    -0.252 OA
BRANCH   3   5
ATOM      5  C   UNL     1      -0.344  -0.393   1.496  1.00  0.00     0.113 C 
ATOM      6  C   UNL     1       0.978  -0.826   0.946  1.00  0.00     0.035 C 
ATOM      7  C   UNL     1       0.429  -1.474   2.183  1.00  0.00    -0.014 C 
ATOM      8  C   UNL     1       1.114  -1.180   3.474  1.00  0.00     0.012 C 
ATOM      9  C   UNL     1      -0.127  -2.857   2.111  1.00  0.00     0.012 C 
BRANCH   6  10
ATOM     10  C   UNL     1       2.098   0.100   1.034  1.00  0.00     0.011 C 
ATOM     11  Cl  UNL     1       2.220   0.560  -1.618  1.00  0.00    -0.071 Cl
ATOM     12  C   UNL     1       2.708   0.746   0.028  1.00  0.00     0.103 C 
ATOM     13  Cl  UNL     1       4.034   1.809   0.348  1.00  0.00    -0.071 Cl
ENDBRANCH   6  10
ENDBRANCH   3   5
ENDBRANCH   2   3
ENDBRANCH   1   2
BRANCH   1  14
ATOM     14  C   UNL     1      -1.102  -2.574  -1.347  1.00  0.00    -0.007 A 
ATOM     15  C   UNL     1       0.270  -2.584  -1.595  1.00  0.00     0.054 A 
ATOM     16  C   UNL     1      -1.742  -3.738  -0.920  1.00  0.00     0.007 A 
ATOM     17  C   UNL     1       1.002  -3.758  -1.417  1.00  0.00     0.127 A 
ATOM     18  C   UNL     1      -1.011  -4.912  -0.743  1.00  0.00     0.004 A 
ATOM     19  C   UNL     1       0.362  -4.921  -0.991  1.00  0.00     0.047 A 
BRANCH  17  20
ATOM     20  O   UNL     1       2.342  -3.768  -1.660  1.00  0.00    -0.457 OA
BRANCH  20  21
ATOM     21  C   UNL     1       3.176  -3.239  -0.690  1.00  0.00     0.127 A 
ATOM     22  C   UNL     1       2.973  -3.586   0.635  1.00  0.00     0.047 A 
ATOM     23  C   UNL     1       4.189  -2.379  -1.068  1.00  0.00     0.047 A 
ATOM     24  C   UNL     1       3.813  -3.054   1.612  1.00  0.00     0.004 A 
ATOM     25  C   UNL     1       5.030  -1.846  -0.090  1.00  0.00     0.004 A 
ATOM     26  C   UNL     1       4.842  -2.185   1.250  1.00  0.00     0.000 A 
ENDBRANCH  20  21
ENDBRANCH  17  20
ENDBRANCH   1  14
TORSDOF 7
ENDMDL
MODEL 4
REMARK VINA RESULT:     2.088      2.701      5.611
REMARK INTER + INTRA:          -3.437
REMARK INTER:                  -0.001
REMARK INTRA:                  -3.437
REMARK CONF_INDEPENDENT:        2.088
REMARK UNBOUND:                -3.437
REMARK SMILES CC1(C)[C@H](C=C(Cl)Cl)[C@H]1C(=O)OCc1cccc(Oc2ccccc2)c1
REMARK SMILES IDX 13 1 12 2 10 3 11 4 9 5 4 6 2 7 1 8 3 9 5 10 7 11 6 12 8 13
REMARK SMILES IDX 14 14 26 15 15 16 18 17 16 18 17 19 19 20 20 21 21 22 25 23
REMARK SMILES IDX 22 24 24 25 23 26
REMARK H PARENT
REMARK Flexibility Score: inf
ROOT
ATOM      1  C   UNL     1      -2.532   0.288   4.182  1.00  0.00     0.268 C 
ENDROOT
BRANCH   1   2
ATOM      2  O   UNL     1      -1.486   0.657   3.293  1.00  0.00    -0.461 OA
BRANCH   2   3
ATOM      3  C   UNL     1      -0.262   0.852   3.864  1.00  0.00     0.310 C 
ATOM      4  O   UNL     1      -0.026   1.487   4.882  1.00  0.00    -0.252 OA
BRANCH   3   5
ATOM      5  C   UNL     1       0.819   0.185   3.095  1.00  0.00     0.113 C 
ATOM      6  C   UNL     1       0.651  -1.258   2.741  1.00  0.00     0.035 C 
ATOM      7  C   UNL     1       1.679  -0.846   3.753  1.00  0.00    -0.014 C 
ATOM      8  C   UNL     1       3.114  -0.965   3.361  1.00  0.00     0.012 C 
ATOM      9  C   UNL     1       1.440  -1.108   5.202  1.00  0.00     0.012 C 
BRANCH   6  10
ATOM     10  C   UNL     1       1.057  -1.694   1.412  1.00  0.00     0.011 C 
ATOM     11  Cl  UNL     1      -1.452  -2.173   0.555  1.00  0.00    -0.071 Cl
ATOM     12  C   UNL     1       0.267  -2.102   0.407  1.00  0.00     0.103 C 
ATOM     13  Cl  UNL     1       0.954  -2.585  -1.105  1.00  0.00    -0.071 Cl
ENDBRANCH   6  10
ENDBRANCH   3   5
ENDBRANCH   2   3
ENDBRANCH   1   2
BRANCH   1  14
ATOM     14  C   UNL     1      -2.150  -0.957   4.909  1.00  0.00    -0.007 A 
ATOM     15  C   UNL     1      -2.009  -2.156   4.211  1.00  0.00     0.054 A 
ATOM     16  C   UNL     1      -1.933  -0.921   6.287  1.00  0.00     0.007 A 
ATOM     17  C   UNL     1      -1.651  -3.320   4.892  1.00  0.00     0.127 A 
ATOM     18  C   UNL     1      -1.576  -2.085   6.967  1.00  0.00     0.004 A 
ATOM     19  C   UNL     1      -1.435  -3.284   6.269  1.00  0.00     0.047 A 
BRANCH  17  20
ATOM     20  O   UNL     1      -1.514  -4.491   4.211  1.00  0.00    -0.457 OA
BRANCH  20  21
ATOM     21  C   UNL     1      -0.344  -4.688   3.498  1.00  0.00     0.127 A 
ATOM     22  C   UNL     1       0.868  -4.389   4.096  1.00  0.00     0.047 A 
ATOM     23  C   UNL     1      -0.415  -5.177   2.207  1.00  0.00     0.047 A 
ATOM     24  C   UNL     1       2.047  -4.587   3.378  1.00  0.00     0.004 A 
ATOM     25  C   UNL     1       0.765  -5.376   1.489  1.00  0.00     0.004 A 
ATOM     26  C   UNL     1       1.996  -5.081   2.075  1.00  0.00     0.000 A 
ENDBRANCH  20  21
ENDBRANCH  17  20
ENDBRANCH   1  14
TORSDOF 7
ENDMDL
MODEL 5
REMARK VINA RESULT:     2.088      3.795      7.000
REMARK INTER + INTRA:          -3.437
REMARK INTER:                  -0.001
REMARK INTRA:                  -3.437
REMARK CONF_INDEPENDENT:        2.088
REMARK UNBOUND:                -3.437
REMARK SMILES CC1(C)[C@H](C=C(Cl)Cl)[C@H]1C(=O)OCc1cccc(Oc2ccccc2)c1
REMARK SMILES IDX 13 1 12 2 10 3 11 4 9 5 4 6 2 7 1 8 3 9 5 10 7 11 6 12 8 13
REMARK SMILES IDX 14 14 26 15 15 16 18 17 16 18 17 19 19 20 20 21 21 22 25 23
REMARK SMILES IDX 22 24 24 25 23 26
REMARK H PARENT
REMARK Flexibility Score: inf
ROOT
ATOM      1  C   UNL     1      -1.492   6.208   0.449  1.00  0.00     0.268 C 
ENDROOT
BRANCH   1   2
ATOM      2  O   UNL     1      -0.121   6.164   0.074  1.00  0.00    -0.461 OA
BRANCH   2   3
ATOM      3  C   UNL     1       0.775   6.453   1.062  1.00  0.00     0.310 C 
ATOM      4  O   UNL     1       0.712   7.383   1.854  1.00  0.00    -0.252 OA
BRANCH   3   5
ATOM      5  C   UNL     1       1.897   5.481   1.093  1.00  0.00     0.113 C 
ATOM      6  C   UNL     1       1.571   4.021   1.117  1.00  0.00     0.035 C 
ATOM      7  C   UNL     1       2.161   4.681   2.329  1.00  0.00    -0.014 C 
ATOM      8  C   UNL     1       3.565   4.325   2.688  1.00  0.00     0.012 C 
ATOM      9  C   UNL     1       1.301   4.958   3.515  1.00  0.00     0.012 C 
BRANCH   6  10
ATOM     10  C   UNL     1       2.374   3.122   0.302  1.00  0.00     0.011 C 
ATOM     11  Cl  UNL     1       0.395   2.567  -1.440  1.00  0.00    -0.071 Cl
ATOM     12  C   UNL     1       1.993   2.451  -0.796  1.00  0.00     0.103 C 
ATOM     13  Cl  UNL     1       3.110   1.422  -1.624  1.00  0.00    -0.071 Cl
ENDBRANCH   6  10
ENDBRANCH   3   5
ENDBRANCH   2   3
ENDBRANCH   1   2
BRANCH   1  14
ATOM     14  C   UNL     1      -1.727   5.269   1.583  1.00  0.00    -0.007 A 
ATOM     15  C   UNL     1      -1.585   3.894   1.390  1.00  0.00     0.054 A 
ATOM     16  C   UNL     1      -2.087   5.764   2.836  1.00  0.00     0.007 A 
ATOM     17  C   UNL     1      -1.804   3.016   2.452  1.00  0.00     0.127 A 
ATOM     18  C   UNL     1      -2.307   4.886   3.896  1.00  0.00     0.004 A 
ATOM     19  C   UNL     1      -2.165   3.512   3.704  1.00  0.00     0.047 A 
BRANCH  17  20
ATOM     20  O   UNL     1      -1.666   1.675   2.264  1.00  0.00    -0.457 OA
BRANCH  20  21
ATOM     21  C   UNL     1      -0.383   1.155   2.252  1.00  0.00     0.127 A 
ATOM     22  C   UNL     1       0.513   1.550   3.230  1.00  0.00     0.047 A 
ATOM     23  C   UNL     1      -0.030   0.255   1.264  1.00  0.00     0.047 A 
ATOM     24  C   UNL     1       1.805   1.026   3.217  1.00  0.00     0.004 A 
ATOM     25  C   UNL     1       1.263  -0.270   1.253  1.00  0.00     0.004 A 
ATOM     26  C   UNL     1       2.180   0.116   2.230  1.00  0.00     0.000 A 
ENDBRANCH  20  21
ENDBRANCH  17  20
ENDBRANCH   1  14
TORSDOF 7
ENDMDL
MODEL 6
REMARK VINA RESULT:     2.088      4.288      5.942
REMARK INTER + INTRA:          -3.437
REMARK INTER:                  -0.001
REMARK INTRA:                  -3.436
REMARK CONF_INDEPENDENT:        2.088
REMARK UNBOUND:                -3.436
REMARK SMILES CC1(C)[C@H](C=C(Cl)Cl)[C@H]1C(=O)OCc1cccc(Oc2ccccc2)c1
REMARK SMILES IDX 13 1 12 2 10 3 11 4 9 5 4 6 2 7 1 8 3 9 5 10 7 11 6 12 8 13
REMARK SMILES IDX 14 14 26 15 15 16 18 17 16 18 17 19 19 20 20 21 21 22 25 23
REMARK SMILES IDX 22 24 24 25 23 26
REMARK H PARENT
REMARK Flexibility Score: inf
ROOT
ATOM      1  C   UNL     1      -1.339   0.824   0.571  1.00  0.00     0.268 C 
ENDROOT
BRANCH   1   2
ATOM      2  O   UNL     1      -1.228   2.240   0.629  1.00  0.00    -0.461 OA
BRANCH   2   3
ATOM      3  C   UNL     1      -0.004   2.726   0.985  1.00  0.00     0.310 C 
ATOM      4  O   UNL     1       0.696   2.334   1.908  1.00  0.00    -0.252 OA
BRANCH   3   5
ATOM      5  C   UNL     1       0.429   3.837   0.099  1.00  0.00     0.113 C 
ATOM      6  C   UNL     1       0.379   3.625  -1.381  1.00  0.00     0.035 C 
ATOM      7  C   UNL     1       1.701   3.722  -0.679  1.00  0.00    -0.014 C 
ATOM      8  C   UNL     1       2.522   4.943  -0.928  1.00  0.00     0.012 C 
ATOM      9  C   UNL     1       2.520   2.494  -0.466  1.00  0.00     0.012 C 
BRANCH   6  10
ATOM     10  C   UNL     1      -0.094   4.718  -2.218  1.00  0.00     0.011 C 
ATOM     11  Cl  UNL     1      -2.385   3.487  -2.923  1.00  0.00    -0.071 Cl
ATOM     12  C   UNL     1      -1.238   4.778  -2.917  1.00  0.00     0.103 C 
ATOM     13  Cl  UNL     1      -1.615   6.178  -3.859  1.00  0.00    -0.071 Cl
ENDBRANCH   6  10
ENDBRANCH   3   5
ENDBRANCH   2   3
ENDBRANCH   1   2
BRANCH   1  14
ATOM     14  C   UNL     1      -0.327   0.285  -0.382  1.00  0.00    -0.007 A 
ATOM     15  C   UNL     1      -0.425   0.579  -1.743  1.00  0.00     0.054 A 
ATOM     16  C   UNL     1       0.718  -0.511   0.086  1.00  0.00     0.007 A 
ATOM     17  C   UNL     1       0.522   0.076  -2.634  1.00  0.00     0.127 A 
ATOM     18  C   UNL     1       1.665  -1.014  -0.806  1.00  0.00     0.004 A 
ATOM     19  C   UNL     1       1.567  -0.721  -2.166  1.00  0.00     0.047 A 
BRANCH  17  20
ATOM     20  O   UNL     1       0.427   0.362  -3.962  1.00  0.00    -0.457 OA
BRANCH  20  21
ATOM     21  C   UNL     1       0.860   1.606  -4.385  1.00  0.00     0.127 A 
ATOM     22  C   UNL     1       2.073   2.090  -3.924  1.00  0.00     0.047 A 
ATOM     23  C   UNL     1       0.073   2.334  -5.257  1.00  0.00     0.047 A 
ATOM     24  C   UNL     1       2.509   3.343  -4.350  1.00  0.00     0.004 A 
ATOM     25  C   UNL     1       0.511   3.589  -5.684  1.00  0.00     0.004 A 
ATOM     26  C   UNL     1       1.729   4.093  -5.231  1.00  0.00     0.000 A 
ENDBRANCH  20  21
ENDBRANCH  17  20
ENDBRANCH   1  14
TORSDOF 7
ENDMDL
MODEL 7
REMARK VINA RESULT:     2.088      3.388      5.770
REMARK INTER + INTRA:          -3.437
REMARK INTER:                  -0.001
REMARK INTRA:                  -3.436
REMARK CONF_INDEPENDENT:        2.088
REMARK UNBOUND:                -3.436
REMARK SMILES CC1(C)[C@H](C=C(Cl)Cl)[C@H]1C(=O)OCc1cccc(Oc2ccccc2)c1
REMARK SMILES IDX 13 1 12 2 10 3 11 4 9 5 4 6 2 7 1 8 3 9 5 10 7 11 6 12 8 13
REMARK SMILES IDX 14 14 26 15 15 16 18 17 16 18 17 19 19 20 20 21 21 22 25 23
REMARK SMILES IDX 22 24 24 25 23 26
REMARK H PARENT
REMARK Flexibility Score: inf
ROOT
ATOM      1  C   UNL     1      -2.823   3.651  -0.686  1.00  0.00     0.268 C 
ENDROOT
BRANCH   1   2
ATOM      2  O   UNL     1      -1.515   4.095  -0.348  1.00  0.00    -0.461 OA
BRANCH   2   3
ATOM      3  C   UNL     1      -1.342   4.506   0.942  1.00  0.00     0.310 C 
ATOM      4  O   UNL     1      -2.081   5.245   1.576  1.00  0.00    -0.252 OA
BRANCH   3   5
ATOM      5  C   UNL     1      -0.106   3.942   1.541  1.00  0.00     0.113 C 
ATOM      6  C   UNL     1       0.118   2.466   1.447  1.00  0.00     0.035 C 
ATOM      7  C   UNL     1      -0.189   3.098   2.773  1.00  0.00    -0.014 C 
ATOM      8  C   UNL     1       0.913   3.155   3.777  1.00  0.00     0.012 C 
ATOM      9  C   UNL     1      -1.537   2.920   3.386  1.00  0.00     0.012 C 
BRANCH   6  10
ATOM     10  C   UNL     1       1.461   1.990   1.150  1.00  0.00     0.011 C 
ATOM     11  Cl  UNL     1       0.843   1.096  -1.316  1.00  0.00    -0.071 Cl
ATOM     12  C   UNL     1       1.890   1.397   0.025  1.00  0.00     0.103 C 
ATOM     13  Cl  UNL     1       3.539   0.900  -0.128  1.00  0.00    -0.071 Cl
ENDBRANCH   6  10
ENDBRANCH   3   5
ENDBRANCH   2   3
ENDBRANCH   1   2
BRANCH   1  14
ATOM     14  C   UNL     1      -3.218   2.534   0.219  1.00  0.00    -0.007 A 
ATOM     15  C   UNL     1      -2.541   1.316   0.159  1.00  0.00     0.054 A 
ATOM     16  C   UNL     1      -4.264   2.707   1.126  1.00  0.00     0.007 A 
ATOM     17  C   UNL     1      -2.910   0.271   1.006  1.00  0.00     0.127 A 
ATOM     18  C   UNL     1      -4.633   1.662   1.972  1.00  0.00     0.004 A 
ATOM     19  C   UNL     1      -3.955   0.444   1.912  1.00  0.00     0.047 A 
BRANCH  17  20
ATOM     20  O   UNL     1      -2.249  -0.918   0.948  1.00  0.00    -0.457 OA
BRANCH  20  21
ATOM     21  C   UNL     1      -1.018  -1.002   1.574  1.00  0.00     0.127 A 
ATOM     22  C   UNL     1      -0.875  -0.489   2.852  1.00  0.00     0.047 A 
ATOM     23  C   UNL     1       0.038  -1.595   0.908  1.00  0.00     0.047 A 
ATOM     24  C   UNL     1       0.365  -0.573   3.482  1.00  0.00     0.004 A 
ATOM     25  C   UNL     1       1.280  -1.680   1.540  1.00  0.00     0.004 A 
ATOM     26  C   UNL     1       1.443  -1.169   2.828  1.00  0.00     0.000 A 
ENDBRANCH  20  21
ENDBRANCH  17  20
ENDBRANCH   1  14
TORSDOF 7
ENDMDL
MODEL 8
REMARK VINA RESULT:     2.088      3.419      5.942
REMARK INTER + INTRA:          -3.437
REMARK INTER:                  -0.001
REMARK INTRA:                  -3.437
REMARK CONF_INDEPENDENT:        2.088
REMARK UNBOUND:                -3.437
REMARK SMILES CC1(C)[C@H](C=C(Cl)Cl)[C@H]1C(=O)OCc1cccc(Oc2ccccc2)c1
REMARK SMILES IDX 13 1 12 2 10 3 11 4 9 5 4 6 2 7 1 8 3 9 5 10 7 11 6 12 8 13
REMARK SMILES IDX 14 14 26 15 15 16 18 17 16 18 17 19 19 20 20 21 21 22 25 23
REMARK SMILES IDX 22 24 24 25 23 26
REMARK H PARENT
REMARK Flexibility Score: inf
ROOT
ATOM      1  C   UNL     1      -5.937   0.637   0.590  1.00  0.00     0.268 C 
ENDROOT
BRANCH   1   2
ATOM      2  O   UNL     1      -4.732   1.392   0.594  1.00  0.00    -0.461 OA
BRANCH   2   3
ATOM      3  C   UNL     1      -4.168   1.604   1.818  1.00  0.00     0.310 C 
ATOM      4  O   UNL     1      -4.746   1.960   2.835  1.00  0.00    -0.252 OA
BRANCH   3   5
ATOM      5  C   UNL     1      -2.705   1.348   1.804  1.00  0.00     0.113 C 
ATOM      6  C   UNL     1      -2.217   0.051   1.241  1.00  0.00     0.035 C 
ATOM      7  C   UNL     1      -2.117   0.317   2.714  1.00  0.00    -0.014 C 
ATOM      8  C   UNL     1      -0.754   0.530   3.282  1.00  0.00     0.012 C 
ATOM      9  C   UNL     1      -3.048  -0.369   3.657  1.00  0.00     0.012 C 
BRANCH   6  10
ATOM     10  C   UNL     1      -1.025   0.068   0.406  1.00  0.00     0.011 C 
ATOM     11  Cl  UNL     1      -2.337  -0.522  -1.872  1.00  0.00    -0.071 Cl
ATOM     12  C   UNL     1      -0.947  -0.157  -0.915  1.00  0.00     0.103 C 
ATOM     13  Cl  UNL     1       0.580  -0.093  -1.724  1.00  0.00    -0.071 Cl
ENDBRANCH   6  10
ENDBRANCH   3   5
ENDBRANCH   2   3
ENDBRANCH   1   2
BRANCH   1  14
ATOM     14  C   UNL     1      -5.695  -0.688   1.229  1.00  0.00    -0.007 A 
ATOM     15  C   UNL     1      -4.845  -1.611   0.621  1.00  0.00     0.054 A 
ATOM     16  C   UNL     1      -6.318  -1.004   2.437  1.00  0.00     0.007 A 
ATOM     17  C   UNL     1      -4.619  -2.850   1.219  1.00  0.00     0.127 A 
ATOM     18  C   UNL     1      -6.092  -2.243   3.035  1.00  0.00     0.004 A 
ATOM     19  C   UNL     1      -5.242  -3.166   2.426  1.00  0.00     0.047 A 
BRANCH  17  20
ATOM     20  O   UNL     1      -3.789  -3.751   0.625  1.00  0.00    -0.457 OA
BRANCH  20  21
ATOM     21  C   UNL     1      -2.425  -3.563   0.768  1.00  0.00     0.127 A 
ATOM     22  C   UNL     1      -1.914  -3.265   2.020  1.00  0.00     0.047 A 
ATOM     23  C   UNL     1      -1.608  -3.678  -0.341  1.00  0.00     0.047 A 
ATOM     24  C   UNL     1      -0.540  -3.075   2.164  1.00  0.00     0.004 A 
ATOM     25  C   UNL     1      -0.234  -3.488  -0.196  1.00  0.00     0.004 A 
ATOM     26  C   UNL     1       0.300  -3.187   1.057  1.00  0.00     0.000 A 
ENDBRANCH  20  21
ENDBRANCH  17  20
ENDBRANCH   1  14
TORSDOF 7
ENDMDL
MODEL 9
REMARK VINA RESULT:     2.088      4.212      6.308
REMARK INTER + INTRA:          -3.437
REMARK INTER:                  -0.001
REMARK INTRA:                  -3.436
REMARK CONF_INDEPENDENT:        2.088
REMARK UNBOUND:                -3.436
REMARK SMILES CC1(C)[C@H](C=C(Cl)Cl)[C@H]1C(=O)OCc1cccc(Oc2ccccc2)c1
REMARK SMILES IDX 13 1 12 2 10 3 11 4 9 5 4 6 2 7 1 8 3 9 5 10 7 11 6 12 8 13
REMARK SMILES IDX 14 14 26 15 15 16 18 17 16 18 17 19 19 20 20 21 21 22 25 23
REMARK SMILES IDX 22 24 24 25 23 26
REMARK H PARENT
REMARK Flexibility Score: inf
ROOT
ATOM      1  C   UNL     1      -2.600  -0.966   0.231  1.00  0.00     0.268 C 
ENDROOT
BRANCH   1   2
ATOM      2  O   UNL     1      -2.490   0.261  -0.479  1.00  0.00    -0.461 OA
BRANCH   2   3
ATOM      3  C   UNL     1      -1.275   0.878  -0.413  1.00  0.00     0.310 C 
ATOM      4  O   UNL     1      -0.599   1.052   0.591  1.00  0.00    -0.252 OA
BRANCH   3   5
ATOM      5  C   UNL     1      -0.819   1.345  -1.747  1.00  0.00     0.113 C 
ATOM      6  C   UNL     1      -0.831   0.370  -2.882  1.00  0.00     0.035 C 
ATOM      7  C   UNL     1       0.473   0.848  -2.314  1.00  0.00    -0.014 C 
ATOM      8  C   UNL     1       1.300   1.754  -3.162  1.00  0.00     0.012 C 
ATOM      9  C   UNL     1       1.286  -0.062  -1.456  1.00  0.00     0.012 C 
BRANCH   6  10
ATOM     10  C   UNL     1      -1.282   0.835  -4.186  1.00  0.00     0.011 C 
ATOM     11  Cl  UNL     1      -3.556  -0.611  -4.167  1.00  0.00    -0.071 Cl
ATOM     12  C   UNL     1      -2.408   0.495  -4.832  1.00  0.00     0.103 C 
ATOM     13  Cl  UNL     1      -2.760   1.164  -6.387  1.00  0.00    -0.071 Cl
ENDBRANCH   6  10
ENDBRANCH   3   5
ENDBRANCH   2   3
ENDBRANCH   1   2
BRANCH   1  14
ATOM     14  C   UNL     1      -1.564  -1.919  -0.261  1.00  0.00    -0.007 A 
ATOM     15  C   UNL     1      -1.627  -2.403  -1.568  1.00  0.00     0.054 A 
ATOM     16  C   UNL     1      -0.531  -2.325   0.585  1.00  0.00     0.007 A 
ATOM     17  C   UNL     1      -0.657  -3.294  -2.028  1.00  0.00     0.127 A 
ATOM     18  C   UNL     1       0.438  -3.216   0.125  1.00  0.00     0.004 A 
ATOM     19  C   UNL     1       0.375  -3.700  -1.182  1.00  0.00     0.047 A 
BRANCH  17  20
ATOM     20  O   UNL     1      -0.717  -3.767  -3.303  1.00  0.00    -0.457 OA
BRANCH  20  21
ATOM     21  C   UNL     1      -0.273  -2.939  -4.319  1.00  0.00     0.127 A 
ATOM     22  C   UNL     1       0.928  -2.267  -4.164  1.00  0.00     0.047 A 
ATOM     23  C   UNL     1      -1.037  -2.805  -5.463  1.00  0.00     0.047 A 
ATOM     24  C   UNL     1       1.376  -1.433  -5.187  1.00  0.00     0.004 A 
ATOM     25  C   UNL     1      -0.588  -1.970  -6.487  1.00  0.00     0.004 A 
ATOM     26  C   UNL     1       0.619  -1.285  -6.349  1.00  0.00     0.000 A 
ENDBRANCH  20  21
ENDBRANCH  17  20
ENDBRANCH   1  14
TORSDOF 7
ENDMDL
