MODEL 1
REMARK VINA RESULT:   -13.251      0.000      0.000
REMARK INTER + INTRA:         -19.139
REMARK INTER:                 -18.673
REMARK INTRA:                  -0.466
REMARK UNBOUND:                -0.466
REMARK Flexibility Score: inf
REMARK Active torsions [ 7 ] -> [ 7 ]
ROOT
ATOM      1  C1  LIG L   1      15.844  54.710  12.401  1.00  0.00     0.038 A 
ATOM      2  C2  LIG L   1      16.920  54.553  11.415  1.00  0.00    -0.029 A 
ATOM      3  C3  LIG L   1      17.904  53.533  11.642  1.00  0.00     0.007 A 
ATOM      4  C4  LIG L   1      17.831  52.687  12.807  1.00  0.00     0.024 A 
ATOM      5  C5  LIG L   1      16.786  52.835  13.765  1.00  0.00     0.035 A 
ATOM      6  C6  LIG L   1      15.787  53.869  13.542  1.00  0.00     0.047 A 
ATOM      7  C7  LIG L   1      17.044  55.426  10.145  1.00  0.00     0.045 C 
ENDROOT
BRANCH    1    8
ATOM      8  N1  LIG L   1      14.860  55.687  12.237  1.00  0.00    -0.283 N 
ATOM      9  H1  LIG L   1      13.984  55.436  11.863  1.00  0.00     0.155 HD
BRANCH    8   10
ATOM     10  C8  LIG L   1      15.101  57.004  12.594  1.00  0.00     0.220 A 
ATOM     11  C9  LIG L   1      14.264  59.229  12.748  1.00  0.00     0.077 A 
ATOM     12 C10  LIG L   1      15.517  59.689  13.275  1.00  0.00     0.048 A 
ATOM     13  N2  LIG L   1      14.105  57.899  12.429  1.00  0.00    -0.214 NA
ATOM     14 C11  LIG L   1      16.543  58.732  13.439  1.00  0.00     0.116 A 
ATOM     15  N3  LIG L   1      16.322  57.415  13.098  1.00  0.00    -0.223 NA
BRANCH   11   16
ATOM     16 C12  LIG L   1      13.085  60.121  12.513  1.00  0.00     0.019 A 
ATOM     17 C13  LIG L   1      11.805  62.269  12.847  1.00  0.00     0.020 A 
ATOM     18 C14  LIG L   1      12.965  61.447  13.105  1.00  0.00     0.013 A 
ATOM     19 C15  LIG L   1      10.773  61.743  11.993  1.00  0.00     0.111 A 
ATOM     20  N4  LIG L   1      10.900  60.465  11.428  1.00  0.00    -0.263 NA
ATOM     21 C16  LIG L   1      12.005  59.652  11.657  1.00  0.00     0.120 A 
ENDBRANCH   11   16
ENDBRANCH    8   10
ENDBRANCH    1    8
BRANCH    5   22
ATOM     22  N5  LIG L   1      16.775  51.946  14.900  1.00  0.00    -0.281 N 
ATOM     23 C17  LIG L   1      15.744  51.727  15.800  1.00  0.00     0.248 C 
ATOM     24  H2  LIG L   1      17.600  51.433  15.055  1.00  0.00     0.155 HD
ATOM     25  O1  LIG L   1      14.745  52.425  15.890  1.00  0.00    -0.270 OA
BRANCH   23   26
ATOM     26 C18  LIG L   1      15.845  50.574  16.746  1.00  0.00     0.037 A 
ATOM     27 C19  LIG L   1      17.114  49.874  16.958  1.00  0.00     0.013 A 
ATOM     28 C20  LIG L   1      14.658  50.142  17.453  1.00  0.00     0.013 A 
ATOM     29 C21  LIG L   1      17.180  48.754  17.864  1.00  0.00     0.002 A 
ATOM     30 C22  LIG L   1      14.727  49.044  18.340  1.00  0.00     0.002 A 
ATOM     31 C23  LIG L   1      15.971  48.328  18.565  1.00  0.00    -0.064 A 
BRANCH   31   32
ATOM     32 C24  LIG L   1      15.944  47.131  19.533  1.00  0.00    -0.043 C 
BRANCH   32   33
ATOM     33  N6  LIG L   1      17.209  46.810  20.259  1.00  0.00     0.380 N 
ATOM     34 C25  LIG L   1      17.477  47.832  21.337  1.00  0.00    -0.097 C 
ATOM     35 C26  LIG L   1      17.183  45.403  20.863  1.00  0.00    -0.097 C 
ATOM     36  H3  LIG L   1      17.964  46.839  19.574  1.00  0.00    -0.082 HD
ATOM     37 C27  LIG L   1      18.801  47.527  22.091  1.00  0.00    -0.098 C 
ATOM     38 C28  LIG L   1      18.523  45.075  21.600  1.00  0.00    -0.098 C 
ATOM     39  N7  LIG L   1      18.777  46.125  22.683  1.00  0.00     0.375 N 
ATOM     40 C29  LIG L   1      20.006  45.787  23.415  1.00  0.00    -0.096 C 
ATOM     41  H4  LIG L   1      18.008  46.119  23.353  1.00  0.00    -0.082 HD
ENDBRANCH   32   33
ENDBRANCH   31   32
ENDBRANCH   23   26
ENDBRANCH    5   22
TORSDOF 7
ENDMDL
MODEL 2
REMARK VINA RESULT:   -11.311      1.047      1.587
REMARK INTER + INTRA:         -16.405
REMARK INTER:                 -15.729
REMARK INTRA:                  -0.676
REMARK UNBOUND:                -0.466
REMARK Flexibility Score: inf
REMARK Active torsions [ 7 ] -> [ 7 ]
ROOT
ATOM      1  C1  LIG L   1      16.360  55.576  12.932  1.00  0.00     0.038 A 
ATOM      2  C2  LIG L   1      16.976  55.184  11.658  1.00  0.00    -0.029 A 
ATOM      3  C3  LIG L   1      17.512  53.858  11.544  1.00  0.00     0.007 A 
ATOM      4  C4  LIG L   1      17.442  52.939  12.653  1.00  0.00     0.024 A 
ATOM      5  C5  LIG L   1      16.841  53.315  13.890  1.00  0.00     0.035 A 
ATOM      6  C6  LIG L   1      16.299  54.659  14.012  1.00  0.00     0.047 A 
ATOM      7  C7  LIG L   1      17.073  56.125  10.435  1.00  0.00     0.045 C 
ENDROOT
BRANCH    1    8
ATOM      8  N1  LIG L   1      15.823  56.854  13.104  1.00  0.00    -0.283 N 
ATOM      9  H1  LIG L   1      16.343  57.540  13.583  1.00  0.00     0.155 HD
BRANCH    8   10
ATOM     10  C8  LIG L   1      14.567  57.168  12.608  1.00  0.00     0.220 A 
ATOM     11  C9  LIG L   1      12.952  58.859  12.156  1.00  0.00     0.077 A 
ATOM     12 C10  LIG L   1      12.037  57.881  11.641  1.00  0.00     0.048 A 
ATOM     13  N2  LIG L   1      14.186  58.462  12.619  1.00  0.00    -0.214 NA
ATOM     14 C11  LIG L   1      12.461  56.533  11.640  1.00  0.00     0.116 A 
ATOM     15  N3  LIG L   1      13.709  56.200  12.120  1.00  0.00    -0.223 NA
BRANCH   11   16
ATOM     16 C12  LIG L   1      12.647  60.323  12.227  1.00  0.00     0.019 A 
ATOM     17 C13  LIG L   1      11.110  62.304  11.947  1.00  0.00     0.020 A 
ATOM     18 C14  LIG L   1      11.352  60.882  11.860  1.00  0.00     0.013 A 
ATOM     19 C15  LIG L   1      12.180  63.151  12.403  1.00  0.00     0.111 A 
ATOM     20  N4  LIG L   1      13.422  62.602  12.755  1.00  0.00    -0.263 NA
ATOM     21 C16  LIG L   1      13.684  61.237  12.683  1.00  0.00     0.120 A 
ENDBRANCH   11   16
ENDBRANCH    8   10
ENDBRANCH    1    8
BRANCH    5   22
ATOM     22  N5  LIG L   1      16.801  52.338  14.950  1.00  0.00    -0.281 N 
ATOM     23 C17  LIG L   1      15.715  51.969  15.726  1.00  0.00     0.248 C 
ATOM     24  H2  LIG L   1      17.649  51.878  15.146  1.00  0.00     0.155 HD
ATOM     25  O1  LIG L   1      14.657  52.579  15.770  1.00  0.00    -0.270 OA
BRANCH   23   26
ATOM     26 C18  LIG L   1      15.824  50.754  16.590  1.00  0.00     0.037 A 
ATOM     27 C19  LIG L   1      17.095  50.040  16.739  1.00  0.00     0.013 A 
ATOM     28 C20  LIG L   1      14.645  50.275  17.278  1.00  0.00     0.013 A 
ATOM     29 C21  LIG L   1      17.169  48.861  17.565  1.00  0.00     0.002 A 
ATOM     30 C22  LIG L   1      14.721  49.119  18.087  1.00  0.00     0.002 A 
ATOM     31 C23  LIG L   1      15.968  48.389  18.249  1.00  0.00    -0.064 A 
BRANCH   31   32
ATOM     32 C24  LIG L   1      15.950  47.128  19.133  1.00  0.00    -0.043 C 
BRANCH   32   33
ATOM     33  N6  LIG L   1      17.166  46.850  19.953  1.00  0.00     0.380 N 
ATOM     34 C25  LIG L   1      17.414  47.972  20.931  1.00  0.00    -0.097 C 
ATOM     35 C26  LIG L   1      17.065  45.515  20.697  1.00  0.00    -0.097 C 
ATOM     36  H3  LIG L   1      17.955  46.786  19.309  1.00  0.00    -0.082 HD
ATOM     37 C27  LIG L   1      18.689  47.712  21.781  1.00  0.00    -0.098 C 
ATOM     38 C28  LIG L   1      18.356  45.230  21.532  1.00  0.00    -0.098 C 
ATOM     39  N7  LIG L   1      18.590  46.381  22.513  1.00  0.00     0.375 N 
ATOM     40 C29  LIG L   1      19.770  46.088  23.339  1.00  0.00    -0.096 C 
ATOM     41  H4  LIG L   1      17.790  46.467  23.139  1.00  0.00    -0.082 HD
ENDBRANCH   32   33
ENDBRANCH   31   32
ENDBRANCH   23   26
ENDBRANCH    5   22
TORSDOF 7
ENDMDL
MODEL 3
REMARK VINA RESULT:   -11.194      2.975     12.427
REMARK INTER + INTRA:         -16.241
REMARK INTER:                 -15.271
REMARK INTRA:                  -0.970
REMARK UNBOUND:                -0.466
REMARK Flexibility Score: inf
REMARK Active torsions [ 7 ] -> [ 7 ]
ROOT
ATOM      1  C1  LIG L   1      16.833  48.694  17.617  1.00  0.00     0.038 A 
ATOM      2  C2  LIG L   1      15.513  48.413  18.195  1.00  0.00    -0.029 A 
ATOM      3  C3  LIG L   1      14.450  49.342  17.940  1.00  0.00     0.007 A 
ATOM      4  C4  LIG L   1      14.677  50.517  17.136  1.00  0.00     0.024 A 
ATOM      5  C5  LIG L   1      15.957  50.792  16.571  1.00  0.00     0.035 A 
ATOM      6  C6  LIG L   1      17.039  49.855  16.828  1.00  0.00     0.047 A 
ATOM      7  C7  LIG L   1      15.211  47.166  19.058  1.00  0.00     0.045 C 
ENDROOT
BRANCH    1    8
ATOM      8  N1  LIG L   1      17.908  47.829  17.832  1.00  0.00    -0.283 N 
ATOM      9  H1  LIG L   1      17.972  46.994  17.314  1.00  0.00     0.155 HD
BRANCH    8   10
ATOM     10  C8  LIG L   1      18.886  48.132  18.767  1.00  0.00     0.220 A 
ATOM     11  C9  LIG L   1      20.902  49.303  19.256  1.00  0.00     0.077 A 
ATOM     12 C10  LIG L   1      20.911  48.779  20.591  1.00  0.00     0.048 A 
ATOM     13  N2  LIG L   1      19.885  48.959  18.394  1.00  0.00    -0.214 NA
ATOM     14 C11  LIG L   1      19.853  47.917  20.957  1.00  0.00     0.116 A 
ATOM     15  N3  LIG L   1      18.865  47.608  20.046  1.00  0.00    -0.223 NA
BRANCH   11   16
ATOM     16 C12  LIG L   1      21.954  50.224  18.719  1.00  0.00     0.019 A 
ATOM     17 C13  LIG L   1      24.184  50.680  17.633  1.00  0.00     0.020 A 
ATOM     18 C14  LIG L   1      23.202  49.748  18.137  1.00  0.00     0.013 A 
ATOM     19 C15  LIG L   1      23.898  52.087  17.723  1.00  0.00     0.111 A 
ATOM     20  N4  LIG L   1      22.692  52.534  18.284  1.00  0.00    -0.263 NA
ATOM     21 C16  LIG L   1      21.728  51.660  18.776  1.00  0.00     0.120 A 
ENDBRANCH   11   16
ENDBRANCH    8   10
ENDBRANCH    1    8
BRANCH    5   22
ATOM     22  N5  LIG L   1      16.105  51.982  15.771  1.00  0.00    -0.281 N 
ATOM     23 C17  LIG L   1      15.622  52.215  14.493  1.00  0.00     0.248 C 
ATOM     24  H2  LIG L   1      16.611  52.719  16.183  1.00  0.00     0.155 HD
ATOM     25  O1  LIG L   1      15.169  51.351  13.758  1.00  0.00    -0.270 OA
BRANCH   23   26
ATOM     26 C18  LIG L   1      15.660  53.607  13.949  1.00  0.00     0.037 A 
ATOM     27 C19  LIG L   1      16.932  54.294  13.710  1.00  0.00     0.013 A 
ATOM     28 C20  LIG L   1      14.412  54.283  13.667  1.00  0.00     0.013 A 
ATOM     29 C21  LIG L   1      16.940  55.643  13.201  1.00  0.00     0.002 A 
ATOM     30 C22  LIG L   1      14.425  55.605  13.167  1.00  0.00     0.002 A 
ATOM     31 C23  LIG L   1      15.671  56.312  12.926  1.00  0.00    -0.064 A 
BRANCH   31   32
ATOM     32 C24  LIG L   1      15.585  57.758  12.401  1.00  0.00    -0.043 C 
BRANCH   32   33
ATOM     33  N6  LIG L   1      14.316  58.502  12.654  1.00  0.00     0.380 N 
ATOM     34 C25  LIG L   1      14.609  59.890  13.170  1.00  0.00    -0.097 C 
ATOM     35 C26  LIG L   1      13.436  58.581  11.403  1.00  0.00    -0.097 C 
ATOM     36  H3  LIG L   1      13.799  57.983  13.364  1.00  0.00    -0.082 HD
ATOM     37 C27  LIG L   1      13.300  60.675  13.461  1.00  0.00    -0.098 C 
ATOM     38 C28  LIG L   1      12.103  59.344  11.692  1.00  0.00    -0.098 C 
ATOM     39  N7  LIG L   1      12.423  60.744  12.218  1.00  0.00     0.375 N 
ATOM     40 C29  LIG L   1      11.172  61.485  12.436  1.00  0.00    -0.096 C 
ATOM     41  H4  LIG L   1      12.966  61.257  11.523  1.00  0.00    -0.082 HD
ENDBRANCH   32   33
ENDBRANCH   31   32
ENDBRANCH   23   26
ENDBRANCH    5   22
TORSDOF 7
ENDMDL
MODEL 4
REMARK VINA RESULT:   -11.037      3.894     12.275
REMARK INTER + INTRA:         -16.019
REMARK INTER:                 -15.142
REMARK INTRA:                  -0.878
REMARK UNBOUND:                -0.466
REMARK Flexibility Score: inf
REMARK Active torsions [ 7 ] -> [ 7 ]
ROOT
ATOM      1  C1  LIG L   1      18.485  48.559  19.021  1.00  0.00     0.038 A 
ATOM      2  C2  LIG L   1      17.516  47.473  19.208  1.00  0.00    -0.029 A 
ATOM      3  C3  LIG L   1      16.352  47.451  18.368  1.00  0.00     0.007 A 
ATOM      4  C4  LIG L   1      16.148  48.469  17.368  1.00  0.00     0.024 A 
ATOM      5  C5  LIG L   1      17.089  49.523  17.182  1.00  0.00     0.035 A 
ATOM      6  C6  LIG L   1      18.269  49.552  18.032  1.00  0.00     0.047 A 
ATOM      7  C7  LIG L   1      17.687  46.351  20.259  1.00  0.00     0.045 C 
ENDROOT
BRANCH    1    8
ATOM      8  N1  LIG L   1      19.635  48.635  19.809  1.00  0.00    -0.283 N 
ATOM      9  H1  LIG L   1      19.554  48.825  20.772  1.00  0.00     0.155 HD
BRANCH    8   10
ATOM     10  C8  LIG L   1      20.891  48.448  19.252  1.00  0.00     0.220 A 
ATOM     11  C9  LIG L   1      22.866  49.445  18.369  1.00  0.00     0.077 A 
ATOM     12 C10  LIG L   1      23.429  48.152  18.104  1.00  0.00     0.048 A 
ATOM     13  N2  LIG L   1      21.615  49.542  18.936  1.00  0.00    -0.214 NA
ATOM     14 C11  LIG L   1      22.651  47.023  18.445  1.00  0.00     0.116 A 
ATOM     15  N3  LIG L   1      21.403  47.187  19.008  1.00  0.00    -0.223 NA
BRANCH   11   16
ATOM     16 C12  LIG L   1      23.564  50.733  18.062  1.00  0.00     0.019 A 
ATOM     17 C13  LIG L   1      25.216  52.125  16.759  1.00  0.00     0.020 A 
ATOM     18 C14  LIG L   1      24.571  50.858  17.016  1.00  0.00     0.013 A 
ATOM     19 C15  LIG L   1      24.839  53.258  17.564  1.00  0.00     0.111 A 
ATOM     20  N4  LIG L   1      23.867  53.126  18.567  1.00  0.00    -0.263 NA
ATOM     21 C16  LIG L   1      23.229  51.919  18.836  1.00  0.00     0.120 A 
ENDBRANCH   11   16
ENDBRANCH    8   10
ENDBRANCH    1    8
BRANCH    5   22
ATOM     22  N5  LIG L   1      16.820  50.500  16.156  1.00  0.00    -0.281 N 
ATOM     23 C17  LIG L   1      15.702  51.307  16.020  1.00  0.00     0.248 C 
ATOM     24  H2  LIG L   1      17.516  50.606  15.467  1.00  0.00     0.155 HD
ATOM     25  O1  LIG L   1      14.662  51.158  16.645  1.00  0.00    -0.270 OA
BRANCH   23   26
ATOM     26 C18  LIG L   1      15.739  52.433  15.038  1.00  0.00     0.037 A 
ATOM     27 C19  LIG L   1      16.735  52.472  13.964  1.00  0.00     0.013 A 
ATOM     28 C20  LIG L   1      14.776  53.505  15.164  1.00  0.00     0.013 A 
ATOM     29 C21  LIG L   1      16.760  53.578  13.040  1.00  0.00     0.002 A 
ATOM     30 C22  LIG L   1      14.802  54.588  14.256  1.00  0.00     0.002 A 
ATOM     31 C23  LIG L   1      15.783  54.654  13.186  1.00  0.00    -0.064 A 
BRANCH   31   32
ATOM     32 C24  LIG L   1      15.748  55.884  12.258  1.00  0.00    -0.043 C 
BRANCH   32   33
ATOM     33  N6  LIG L   1      15.022  57.092  12.752  1.00  0.00     0.380 N 
ATOM     34 C25  LIG L   1      15.954  58.276  12.828  1.00  0.00    -0.097 C 
ATOM     35 C26  LIG L   1      13.811  57.431  11.878  1.00  0.00    -0.097 C 
ATOM     36  H3  LIG L   1      14.679  56.875  13.687  1.00  0.00    -0.082 HD
ATOM     37 C27  LIG L   1      15.222  59.541  13.359  1.00  0.00    -0.098 C 
ATOM     38 C28  LIG L   1      13.050  58.684  12.421  1.00  0.00    -0.098 C 
ATOM     39  N7  LIG L   1      14.014  59.870  12.495  1.00  0.00     0.375 N 
ATOM     40 C29  LIG L   1      13.287  61.064  12.950  1.00  0.00    -0.096 C 
ATOM     41  H4  LIG L   1      14.383  60.071  11.565  1.00  0.00    -0.082 HD
ENDBRANCH   32   33
ENDBRANCH   31   32
ENDBRANCH   23   26
ENDBRANCH    5   22
TORSDOF 7
ENDMDL
MODEL 5
REMARK VINA RESULT:   -10.514      2.566     12.574
REMARK INTER + INTRA:         -15.283
REMARK INTER:                 -14.503
REMARK INTRA:                  -0.780
REMARK UNBOUND:                -0.466
REMARK Flexibility Score: inf
REMARK Active torsions [ 7 ] -> [ 7 ]
ROOT
ATOM      1  C1  LIG L   1      15.583  47.965  18.495  1.00  0.00     0.038 A 
ATOM      2  C2  LIG L   1      14.284  47.747  19.143  1.00  0.00    -0.029 A 
ATOM      3  C3  LIG L   1      13.242  48.705  18.911  1.00  0.00     0.007 A 
ATOM      4  C4  LIG L   1      13.469  49.848  18.062  1.00  0.00     0.024 A 
ATOM      5  C5  LIG L   1      14.728  50.061  17.429  1.00  0.00     0.035 A 
ATOM      6  C6  LIG L   1      15.790  49.094  17.662  1.00  0.00     0.047 A 
ATOM      7  C7  LIG L   1      13.982  46.536  20.057  1.00  0.00     0.045 C 
ENDROOT
BRANCH    1    8
ATOM      8  N1  LIG L   1      16.638  47.069  18.685  1.00  0.00    -0.283 N 
ATOM      9  H1  LIG L   1      16.658  46.227  18.175  1.00  0.00     0.155 HD
BRANCH    8   10
ATOM     10  C8  LIG L   1      17.655  47.351  19.583  1.00  0.00     0.220 A 
ATOM     11  C9  LIG L   1      19.884  48.124  19.915  1.00  0.00     0.077 A 
ATOM     12 C10  LIG L   1      19.766  47.929  21.332  1.00  0.00     0.048 A 
ATOM     13  N2  LIG L   1      18.818  47.828  19.094  1.00  0.00    -0.214 NA
ATOM     14 C11  LIG L   1      18.536  47.430  21.818  1.00  0.00     0.116 A 
ATOM     15  N3  LIG L   1      17.509  47.150  20.944  1.00  0.00    -0.223 NA
BRANCH   11   16
ATOM     16 C12  LIG L   1      21.120  48.642  19.249  1.00  0.00     0.019 A 
ATOM     17 C13  LIG L   1      22.551  50.504  18.327  1.00  0.00     0.020 A 
ATOM     18 C14  LIG L   1      21.338  50.056  18.972  1.00  0.00     0.013 A 
ATOM     19 C15  LIG L   1      23.535  49.518  17.964  1.00  0.00     0.111 A 
ATOM     20  N4  LIG L   1      23.315  48.159  18.237  1.00  0.00    -0.263 NA
ATOM     21 C16  LIG L   1      22.158  47.699  18.859  1.00  0.00     0.120 A 
ENDBRANCH   11   16
ENDBRANCH    8   10
ENDBRANCH    1    8
BRANCH    5   22
ATOM     22  N5  LIG L   1      14.877  51.222  16.587  1.00  0.00    -0.281 N 
ATOM     23 C17  LIG L   1      15.962  51.569  15.799  1.00  0.00     0.248 C 
ATOM     24  H2  LIG L   1      14.114  51.844  16.571  1.00  0.00     0.155 HD
ATOM     25  O1  LIG L   1      17.061  51.039  15.864  1.00  0.00    -0.270 OA
BRANCH   23   26
ATOM     26 C18  LIG L   1      15.807  52.674  14.804  1.00  0.00     0.037 A 
ATOM     27 C19  LIG L   1      16.731  52.816  13.676  1.00  0.00     0.013 A 
ATOM     28 C20  LIG L   1      14.729  53.625  14.975  1.00  0.00     0.013 A 
ATOM     29 C21  LIG L   1      16.570  53.901  12.741  1.00  0.00     0.002 A 
ATOM     30 C22  LIG L   1      14.574  54.687  14.056  1.00  0.00     0.002 A 
ATOM     31 C23  LIG L   1      15.478  54.853  12.930  1.00  0.00    -0.064 A 
BRANCH   31   32
ATOM     32 C24  LIG L   1      15.244  56.054  11.994  1.00  0.00    -0.043 C 
BRANCH   32   33
ATOM     33  N6  LIG L   1      14.554  57.246  12.571  1.00  0.00     0.380 N 
ATOM     34 C25  LIG L   1      15.533  58.375  12.781  1.00  0.00    -0.097 C 
ATOM     35 C26  LIG L   1      13.390  57.716  11.694  1.00  0.00    -0.097 C 
ATOM     36  H3  LIG L   1      14.169  56.963  13.472  1.00  0.00    -0.082 HD
ATOM     37 C27  LIG L   1      14.838  59.620  13.401  1.00  0.00    -0.098 C 
ATOM     38 C28  LIG L   1      12.665  58.950  12.324  1.00  0.00    -0.098 C 
ATOM     39  N7  LIG L   1      13.675  60.079  12.532  1.00  0.00     0.375 N 
ATOM     40 C29  LIG L   1      12.986  61.261  13.070  1.00  0.00    -0.096 C 
ATOM     41  H4  LIG L   1      14.085  60.344  11.636  1.00  0.00    -0.082 HD
ENDBRANCH   32   33
ENDBRANCH   31   32
ENDBRANCH   23   26
ENDBRANCH    5   22
TORSDOF 7
ENDMDL
