MODEL 1
REMARK VINA RESULT:     0.894      0.000      0.000
REMARK INTER + INTRA:          -1.093
REMARK INTER:                  -0.001
REMARK INTRA:                  -1.092
REMARK CONF_INDEPENDENT:        0.895
REMARK UNBOUND:                -1.092
REMARK SMILES Clc1ccc(C(c2ccc(Cl)cc2)C(Cl)(Cl)Cl)cc1
REMARK SMILES IDX 6 1 14 2 15 3 16 4 17 5 5 6 4 7 18 8 3 9 19 10 2 11 1 12
REMARK SMILES IDX 7 13 8 14 13 15 9 16 12 17 10 18 11 19
REMARK H PARENT
REMARK Flexibility Score: inf
ROOT
ATOM      1  C   UNL     1       3.980   2.631   1.028  1.00  0.00     0.101 C 
ENDROOT
BRANCH   1   2
ATOM      2  C   UNL     1       5.042   1.791   0.203  1.00  0.00     0.201 C 
ATOM      3  Cl  UNL     1       4.820   0.014   0.308  1.00  0.00    -0.083 Cl
ATOM      4  Cl  UNL     1       6.706   2.134   0.841  1.00  0.00    -0.083 Cl
ATOM      5  Cl  UNL     1       5.075   2.254  -1.541  1.00  0.00    -0.083 Cl
ENDBRANCH   1   2
BRANCH   1   6
ATOM      6  C   UNL     1       3.838   2.259   2.466  1.00  0.00    -0.036 A 
ATOM      7  C   UNL     1       2.947   1.254   2.841  1.00  0.00     0.006 A 
ATOM      8  C   UNL     1       4.597   2.916   3.435  1.00  0.00     0.006 A 
ATOM      9  C   UNL     1       2.813   0.907   4.185  1.00  0.00     0.021 A 
ATOM     10  C   UNL     1       4.464   2.568   4.779  1.00  0.00     0.021 A 
ATOM     11  C   UNL     1       3.572   1.564   5.154  1.00  0.00     0.041 A 
ATOM     12  Cl  UNL     1       3.407   1.135   6.813  1.00  0.00    -0.084 Cl
ENDBRANCH   1   6
BRANCH   1  13
ATOM     13  C   UNL     1       2.617   2.885   0.337  1.00  0.00    -0.036 A 
ATOM     14  C   UNL     1       1.963   1.812  -0.201  1.00  0.00     0.006 A 
ATOM     15  C   UNL     1       2.146   4.168   0.305  1.00  0.00     0.006 A 
ATOM     16  C   UNL     1       0.737   2.042  -0.825  1.00  0.00     0.021 A 
ATOM     17  C   UNL     1       0.919   4.397  -0.319  1.00  0.00     0.021 A 
ATOM     18  C   UNL     1       0.215   3.334  -0.883  1.00  0.00     0.041 A 
ATOM     19  Cl  UNL     1      -1.299   3.617  -1.653  1.00  0.00    -0.084 Cl
ENDBRANCH   1  13
TORSDOF 3
ENDMDL
MODEL 2
REMARK VINA RESULT:     0.894      3.416      4.670
REMARK INTER + INTRA:          -1.091
REMARK INTER:                  -0.001
REMARK INTRA:                  -1.090
REMARK CONF_INDEPENDENT:        0.895
REMARK UNBOUND:                -1.090
REMARK SMILES Clc1ccc(C(c2ccc(Cl)cc2)C(Cl)(Cl)Cl)cc1
REMARK SMILES IDX 6 1 14 2 15 3 16 4 17 5 5 6 4 7 18 8 3 9 19 10 2 11 1 12
REMARK SMILES IDX 7 13 8 14 13 15 9 16 12 17 10 18 11 19
REMARK H PARENT
REMARK Flexibility Score: inf
ROOT
ATOM      1  C   UNL     1       1.957   0.883  -0.621  1.00  0.00     0.101 C 
ENDROOT
BRANCH   1   2
ATOM      2  C   UNL     1       2.087   1.612  -2.023  1.00  0.00     0.201 C 
ATOM      3  Cl  UNL     1       2.593   0.539  -3.368  1.00  0.00    -0.083 Cl
ATOM      4  Cl  UNL     1       3.346   2.913  -1.909  1.00  0.00    -0.083 Cl
ATOM      5  Cl  UNL     1       0.559   2.442  -2.506  1.00  0.00    -0.083 Cl
ENDBRANCH   1   2
BRANCH   1   6
ATOM      6  C   UNL     1       3.155   0.110  -0.181  1.00  0.00    -0.036 A 
ATOM      7  C   UNL     1       3.304  -1.222  -0.566  1.00  0.00     0.006 A 
ATOM      8  C   UNL     1       4.124   0.720   0.616  1.00  0.00     0.006 A 
ATOM      9  C   UNL     1       4.424  -1.945  -0.154  1.00  0.00     0.021 A 
ATOM     10  C   UNL     1       5.244  -0.003   1.027  1.00  0.00     0.021 A 
ATOM     11  C   UNL     1       5.394  -1.335   0.642  1.00  0.00     0.041 A 
ATOM     12  Cl  UNL     1       6.775  -2.228   1.151  1.00  0.00    -0.084 Cl
ENDBRANCH   1   6
BRANCH   1  13
ATOM     13  C   UNL     1       0.628   0.131  -0.357  1.00  0.00    -0.036 A 
ATOM     14  C   UNL     1       0.184  -0.738  -1.314  1.00  0.00     0.006 A 
ATOM     15  C   UNL     1      -0.025   0.380   0.818  1.00  0.00     0.006 A 
ATOM     16  C   UNL     1      -1.013  -1.413  -1.076  1.00  0.00     0.021 A 
ATOM     17  C   UNL     1      -1.222  -0.295   1.055  1.00  0.00     0.021 A 
ATOM     18  C   UNL     1      -1.716  -1.192   0.108  1.00  0.00     0.041 A 
ATOM     19  Cl  UNL     1      -3.194  -2.025   0.401  1.00  0.00    -0.084 Cl
ENDBRANCH   1  13
TORSDOF 3
ENDMDL
MODEL 3
REMARK VINA RESULT:     0.894      4.360      6.743
REMARK INTER + INTRA:          -1.092
REMARK INTER:                  -0.001
REMARK INTRA:                  -1.091
REMARK CONF_INDEPENDENT:        0.895
REMARK UNBOUND:                -1.091
REMARK SMILES Clc1ccc(C(c2ccc(Cl)cc2)C(Cl)(Cl)Cl)cc1
REMARK SMILES IDX 6 1 14 2 15 3 16 4 17 5 5 6 4 7 18 8 3 9 19 10 2 11 1 12
REMARK SMILES IDX 7 13 8 14 13 15 9 16 12 17 10 18 11 19
REMARK H PARENT
REMARK Flexibility Score: inf
ROOT
ATOM      1  C   UNL     1      -1.070   1.285   2.416  1.00  0.00     0.101 C 
ENDROOT
BRANCH   1   2
ATOM      2  C   UNL     1      -2.345   1.493   3.336  1.00  0.00     0.201 C 
ATOM      3  Cl  UNL     1      -3.763   2.188   2.485  1.00  0.00    -0.083 Cl
ATOM      4  Cl  UNL     1      -1.938   2.650   4.673  1.00  0.00    -0.083 Cl
ATOM      5  Cl  UNL     1      -2.863  -0.035   4.143  1.00  0.00    -0.083 Cl
ENDBRANCH   1   2
BRANCH   1   6
ATOM      6  C   UNL     1      -0.620   2.485   1.655  1.00  0.00    -0.036 A 
ATOM      7  C   UNL     1      -1.159   2.756   0.398  1.00  0.00     0.006 A 
ATOM      8  C   UNL     1       0.342   3.337   2.199  1.00  0.00     0.006 A 
ATOM      9  C   UNL     1      -0.737   3.879  -0.315  1.00  0.00     0.021 A 
ATOM     10  C   UNL     1       0.764   4.459   1.487  1.00  0.00     0.021 A 
ATOM     11  C   UNL     1       0.224   4.730   0.230  1.00  0.00     0.041 A 
ATOM     12  Cl  UNL     1       0.746   6.115  -0.650  1.00  0.00    -0.084 Cl
ENDBRANCH   1   6
BRANCH   1  13
ATOM     13  C   UNL     1      -1.040  -0.010   1.566  1.00  0.00    -0.036 A 
ATOM     14  C   UNL     1      -2.142  -0.309   0.814  1.00  0.00     0.006 A 
ATOM     15  C   UNL     1       0.087  -0.782   1.617  1.00  0.00     0.006 A 
ATOM     16  C   UNL     1      -2.115  -1.475   0.051  1.00  0.00     0.021 A 
ATOM     17  C   UNL     1       0.114  -1.949   0.853  1.00  0.00     0.021 A 
ATOM     18  C   UNL     1      -0.987  -2.296   0.070  1.00  0.00     0.041 A 
ATOM     19  Cl  UNL     1      -0.953  -3.736  -0.872  1.00  0.00    -0.084 Cl
ENDBRANCH   1  13
TORSDOF 3
ENDMDL
MODEL 4
REMARK VINA RESULT:     0.894      3.563      5.072
REMARK INTER + INTRA:          -1.092
REMARK INTER:                  -0.001
REMARK INTRA:                  -1.091
REMARK CONF_INDEPENDENT:        0.895
REMARK UNBOUND:                -1.091
REMARK SMILES Clc1ccc(C(c2ccc(Cl)cc2)C(Cl)(Cl)Cl)cc1
REMARK SMILES IDX 6 1 14 2 15 3 16 4 17 5 5 6 4 7 18 8 3 9 19 10 2 11 1 12
REMARK SMILES IDX 7 13 8 14 13 15 9 16 12 17 10 18 11 19
REMARK H PARENT
REMARK Flexibility Score: inf
ROOT
ATOM      1  C   UNL     1       4.098  -0.001   2.246  1.00  0.00     0.101 C 
ENDROOT
BRANCH   1   2
ATOM      2  C   UNL     1       4.693   1.346   1.656  1.00  0.00     0.201 C 
ATOM      3  Cl  UNL     1       4.499   1.523  -0.118  1.00  0.00    -0.083 Cl
ATOM      4  Cl  UNL     1       6.476   1.408   1.982  1.00  0.00    -0.083 Cl
ATOM      5  Cl  UNL     1       3.993   2.808   2.450  1.00  0.00    -0.083 Cl
ENDBRANCH   1   2
BRANCH   1   6
ATOM      6  C   UNL     1       4.571  -1.256   1.594  1.00  0.00    -0.036 A 
ATOM      7  C   UNL     1       3.903  -1.756   0.477  1.00  0.00     0.006 A 
ATOM      8  C   UNL     1       5.682  -1.931   2.103  1.00  0.00     0.006 A 
ATOM      9  C   UNL     1       4.344  -2.931  -0.132  1.00  0.00     0.021 A 
ATOM     10  C   UNL     1       6.124  -3.104   1.493  1.00  0.00     0.021 A 
ATOM     11  C   UNL     1       5.455  -3.604   0.376  1.00  0.00     0.041 A 
ATOM     12  Cl  UNL     1       6.000  -5.054  -0.375  1.00  0.00    -0.084 Cl
ENDBRANCH   1   6
BRANCH   1  13
ATOM     13  C   UNL     1       2.575  -0.012   2.534  1.00  0.00    -0.036 A 
ATOM     14  C   UNL     1       1.733   0.410   1.544  1.00  0.00     0.006 A 
ATOM     15  C   UNL     1       2.161  -0.442   3.764  1.00  0.00     0.006 A 
ATOM     16  C   UNL     1       0.364   0.401   1.805  1.00  0.00     0.021 A 
ATOM     17  C   UNL     1       0.791  -0.451   4.025  1.00  0.00     0.021 A 
ATOM     18  C   UNL     1      -0.108  -0.030   3.045  1.00  0.00     0.041 A 
ATOM     19  Cl  UNL     1      -1.799  -0.040   3.367  1.00  0.00    -0.084 Cl
ENDBRANCH   1  13
TORSDOF 3
ENDMDL
MODEL 5
REMARK VINA RESULT:     0.894      5.374      8.555
REMARK INTER + INTRA:          -1.092
REMARK INTER:                  -0.001
REMARK INTRA:                  -1.092
REMARK CONF_INDEPENDENT:        0.895
REMARK UNBOUND:                -1.092
REMARK SMILES Clc1ccc(C(c2ccc(Cl)cc2)C(Cl)(Cl)Cl)cc1
REMARK SMILES IDX 6 1 14 2 15 3 16 4 17 5 5 6 4 7 18 8 3 9 19 10 2 11 1 12
REMARK SMILES IDX 7 13 8 14 13 15 9 16 12 17 10 18 11 19
REMARK H PARENT
REMARK Flexibility Score: inf
ROOT
ATOM      1  C   UNL     1      -2.994   0.394  -0.261  1.00  0.00     0.101 C 
ENDROOT
BRANCH   1   2
ATOM      2  C   UNL     1      -4.332   1.206  -0.000  1.00  0.00     0.201 C 
ATOM      3  Cl  UNL     1      -5.148   1.782  -1.489  1.00  0.00    -0.083 Cl
ATOM      4  Cl  UNL     1      -3.954   2.686   0.978  1.00  0.00    -0.083 Cl
ATOM      5  Cl  UNL     1      -5.525   0.262   0.970  1.00  0.00    -0.083 Cl
ENDBRANCH   1   2
BRANCH   1   6
ATOM      6  C   UNL     1      -1.982   1.076  -1.117  1.00  0.00    -0.036 A 
ATOM      7  C   UNL     1      -2.031   0.932  -2.503  1.00  0.00     0.006 A 
ATOM      8  C   UNL     1      -0.985   1.857  -0.532  1.00  0.00     0.006 A 
ATOM      9  C   UNL     1      -1.083   1.569  -3.305  1.00  0.00     0.021 A 
ATOM     10  C   UNL     1      -0.038   2.494  -1.333  1.00  0.00     0.021 A 
ATOM     11  C   UNL     1      -0.087   2.350  -2.720  1.00  0.00     0.041 A 
ATOM     12  Cl  UNL     1       1.083   3.136  -3.708  1.00  0.00    -0.084 Cl
ENDBRANCH   1   6
BRANCH   1  13
ATOM     13  C   UNL     1      -3.157  -1.108  -0.605  1.00  0.00    -0.036 A 
ATOM     14  C   UNL     1      -4.042  -1.446  -1.590  1.00  0.00     0.006 A 
ATOM     15  C   UNL     1      -2.407  -2.010   0.097  1.00  0.00     0.006 A 
ATOM     16  C   UNL     1      -4.189  -2.798  -1.899  1.00  0.00     0.021 A 
ATOM     17  C   UNL     1      -2.556  -3.362  -0.211  1.00  0.00     0.021 A 
ATOM     18  C   UNL     1      -3.446  -3.756  -1.210  1.00  0.00     0.041 A 
ATOM     19  Cl  UNL     1      -3.628  -5.425  -1.590  1.00  0.00    -0.084 Cl
ENDBRANCH   1  13
TORSDOF 3
ENDMDL
MODEL 6
REMARK VINA RESULT:     0.894      3.605      5.019
REMARK INTER + INTRA:          -1.092
REMARK INTER:                  -0.001
REMARK INTRA:                  -1.092
REMARK CONF_INDEPENDENT:        0.895
REMARK UNBOUND:                -1.092
REMARK SMILES Clc1ccc(C(c2ccc(Cl)cc2)C(Cl)(Cl)Cl)cc1
REMARK SMILES IDX 6 1 14 2 15 3 16 4 17 5 5 6 4 7 18 8 3 9 19 10 2 11 1 12
REMARK SMILES IDX 7 13 8 14 13 15 9 16 12 17 10 18 11 19
REMARK H PARENT
REMARK Flexibility Score: inf
ROOT
ATOM      1  C   UNL     1      -0.541   2.075   0.850  1.00  0.00     0.101 C 
ENDROOT
BRANCH   1   2
ATOM      2  C   UNL     1      -0.228   2.632  -0.602  1.00  0.00     0.201 C 
ATOM      3  Cl  UNL     1       0.113   1.362  -1.822  1.00  0.00    -0.083 Cl
ATOM      4  Cl  UNL     1       1.249   3.684  -0.536  1.00  0.00    -0.083 Cl
ATOM      5  Cl  UNL     1      -1.555   3.680  -1.231  1.00  0.00    -0.083 Cl
ENDBRANCH   1   2
BRANCH   1   6
ATOM      6  C   UNL     1       0.475   1.140   1.415  1.00  0.00    -0.036 A 
ATOM      7  C   UNL     1       0.385  -0.227   1.155  1.00  0.00     0.006 A 
ATOM      8  C   UNL     1       1.514   1.633   2.206  1.00  0.00     0.006 A 
ATOM      9  C   UNL     1       1.334  -1.102   1.685  1.00  0.00     0.021 A 
ATOM     10  C   UNL     1       2.463   0.759   2.735  1.00  0.00     0.021 A 
ATOM     11  C   UNL     1       2.373  -0.608   2.474  1.00  0.00     0.041 A 
ATOM     12  Cl  UNL     1       3.544  -1.688   3.128  1.00  0.00    -0.084 Cl
ENDBRANCH   1   6
BRANCH   1  13
ATOM     13  C   UNL     1      -1.995   1.608   1.109  1.00  0.00    -0.036 A 
ATOM     14  C   UNL     1      -2.562   0.750   0.209  1.00  0.00     0.006 A 
ATOM     15  C   UNL     1      -2.630   2.083   2.223  1.00  0.00     0.006 A 
ATOM     16  C   UNL     1      -3.872   0.331   0.443  1.00  0.00     0.021 A 
ATOM     17  C   UNL     1      -3.940   1.664   2.456  1.00  0.00     0.021 A 
ATOM     18  C   UNL     1      -4.561   0.788   1.566  1.00  0.00     0.041 A 
ATOM     19  Cl  UNL     1      -6.178   0.272   1.853  1.00  0.00    -0.084 Cl
ENDBRANCH   1  13
TORSDOF 3
ENDMDL
MODEL 7
REMARK VINA RESULT:     0.894      2.776      5.335
REMARK INTER + INTRA:          -1.092
REMARK INTER:                  -0.001
REMARK INTRA:                  -1.091
REMARK CONF_INDEPENDENT:        0.895
REMARK UNBOUND:                -1.091
REMARK SMILES Clc1ccc(C(c2ccc(Cl)cc2)C(Cl)(Cl)Cl)cc1
REMARK SMILES IDX 6 1 14 2 15 3 16 4 17 5 5 6 4 7 18 8 3 9 19 10 2 11 1 12
REMARK SMILES IDX 7 13 8 14 13 15 9 16 12 17 10 18 11 19
REMARK H PARENT
REMARK Flexibility Score: inf
ROOT
ATOM      1  C   UNL     1       5.087   0.892   1.675  1.00  0.00     0.101 C 
ENDROOT
BRANCH   1   2
ATOM      2  C   UNL     1       4.552   1.652   0.390  1.00  0.00     0.201 C 
ATOM      3  Cl  UNL     1       2.765   1.703   0.255  1.00  0.00    -0.083 Cl
ATOM      4  Cl  UNL     1       5.151   0.807  -1.100  1.00  0.00    -0.083 Cl
ATOM      5  Cl  UNL     1       5.176   3.341   0.286  1.00  0.00    -0.083 Cl
ENDBRANCH   1   2
BRANCH   1   6
ATOM      6  C   UNL     1       4.561  -0.489   1.875  1.00  0.00    -0.036 A 
ATOM      7  C   UNL     1       3.371  -0.687   2.575  1.00  0.00     0.006 A 
ATOM      8  C   UNL     1       5.259  -1.584   1.363  1.00  0.00     0.006 A 
ATOM      9  C   UNL     1       2.878  -1.978   2.763  1.00  0.00     0.021 A 
ATOM     10  C   UNL     1       4.766  -2.875   1.550  1.00  0.00     0.021 A 
ATOM     11  C   UNL     1       3.576  -3.072   2.250  1.00  0.00     0.041 A 
ATOM     12  Cl  UNL     1       2.969  -4.666   2.482  1.00  0.00    -0.084 Cl
ENDBRANCH   1   6
BRANCH   1  13
ATOM     13  C   UNL     1       5.135   1.711   2.989  1.00  0.00    -0.036 A 
ATOM     14  C   UNL     1       4.011   2.397   3.356  1.00  0.00     0.006 A 
ATOM     15  C   UNL     1       6.298   1.703   3.706  1.00  0.00     0.006 A 
ATOM     16  C   UNL     1       4.055   3.136   4.538  1.00  0.00     0.021 A 
ATOM     17  C   UNL     1       6.342   2.442   4.888  1.00  0.00     0.021 A 
ATOM     18  C   UNL     1       5.220   3.159   5.305  1.00  0.00     0.041 A 
ATOM     19  Cl  UNL     1       5.274   4.071   6.763  1.00  0.00    -0.084 Cl
ENDBRANCH   1  13
TORSDOF 3
ENDMDL
MODEL 8
REMARK VINA RESULT:     0.894      5.099      8.518
REMARK INTER + INTRA:          -1.092
REMARK INTER:                  -0.001
REMARK INTRA:                  -1.091
REMARK CONF_INDEPENDENT:        0.895
REMARK UNBOUND:                -1.091
REMARK SMILES Clc1ccc(C(c2ccc(Cl)cc2)C(Cl)(Cl)Cl)cc1
REMARK SMILES IDX 6 1 14 2 15 3 16 4 17 5 5 6 4 7 18 8 3 9 19 10 2 11 1 12
REMARK SMILES IDX 7 13 8 14 13 15 9 16 12 17 10 18 11 19
REMARK H PARENT
REMARK Flexibility Score: inf
ROOT
ATOM      1  C   UNL     1       0.659  -0.818  -2.745  1.00  0.00     0.101 C 
ENDROOT
BRANCH   1   2
ATOM      2  C   UNL     1      -0.665  -0.887  -1.875  1.00  0.00     0.201 C 
ATOM      3  Cl  UNL     1      -1.084  -2.532  -1.297  1.00  0.00    -0.083 Cl
ATOM      4  Cl  UNL     1      -2.071  -0.327  -2.877  1.00  0.00    -0.083 Cl
ATOM      5  Cl  UNL     1      -0.603   0.216  -0.448  1.00  0.00    -0.083 Cl
ENDBRANCH   1   2
BRANCH   1   6
ATOM      6  C   UNL     1       0.719  -1.754  -3.905  1.00  0.00    -0.036 A 
ATOM      7  C   UNL     1       1.210  -3.048  -3.732  1.00  0.00     0.006 A 
ATOM      8  C   UNL     1       0.285  -1.335  -5.163  1.00  0.00     0.006 A 
ATOM      9  C   UNL     1       1.268  -3.923  -4.817  1.00  0.00     0.021 A 
ATOM     10  C   UNL     1       0.341  -2.210  -6.247  1.00  0.00     0.021 A 
ATOM     11  C   UNL     1       0.833  -3.504  -6.075  1.00  0.00     0.041 A 
ATOM     12  Cl  UNL     1       0.904  -4.583  -7.414  1.00  0.00    -0.084 Cl
ENDBRANCH   1   6
BRANCH   1  13
ATOM     13  C   UNL     1       1.994  -0.749  -1.961  1.00  0.00    -0.036 A 
ATOM     14  C   UNL     1       2.201  -1.665  -0.968  1.00  0.00     0.006 A 
ATOM     15  C   UNL     1       2.888   0.226  -2.307  1.00  0.00     0.006 A 
ATOM     16  C   UNL     1       3.402  -1.601  -0.262  1.00  0.00     0.021 A 
ATOM     17  C   UNL     1       4.089   0.290  -1.600  1.00  0.00     0.021 A 
ATOM     18  C   UNL     1       4.346  -0.624  -0.578  1.00  0.00     0.041 A 
ATOM     19  Cl  UNL     1       5.828  -0.544   0.294  1.00  0.00    -0.084 Cl
ENDBRANCH   1  13
TORSDOF 3
ENDMDL
MODEL 9
REMARK VINA RESULT:     0.894      6.861      8.549
REMARK INTER + INTRA:          -1.092
REMARK INTER:                  -0.001
REMARK INTRA:                  -1.091
REMARK CONF_INDEPENDENT:        0.895
REMARK UNBOUND:                -1.091
REMARK SMILES Clc1ccc(C(c2ccc(Cl)cc2)C(Cl)(Cl)Cl)cc1
REMARK SMILES IDX 6 1 14 2 15 3 16 4 17 5 5 6 4 7 18 8 3 9 19 10 2 11 1 12
REMARK SMILES IDX 7 13 8 14 13 15 9 16 12 17 10 18 11 19
REMARK H PARENT
REMARK Flexibility Score: inf
ROOT
ATOM      1  C   UNL     1       0.623  -4.550   1.383  1.00  0.00     0.101 C 
ENDROOT
BRANCH   1   2
ATOM      2  C   UNL     1       1.124  -4.372  -0.111  1.00  0.00     0.201 C 
ATOM      3  Cl  UNL     1      -0.080  -3.625  -1.210  1.00  0.00    -0.083 Cl
ATOM      4  Cl  UNL     1       1.512  -6.000  -0.812  1.00  0.00    -0.083 Cl
ATOM      5  Cl  UNL     1       2.651  -3.415  -0.210  1.00  0.00    -0.083 Cl
ENDBRANCH   1   2
BRANCH   1   6
ATOM      6  C   UNL     1      -0.673  -5.269   1.547  1.00  0.00    -0.036 A 
ATOM      7  C   UNL     1      -1.873  -4.560   1.505  1.00  0.00     0.006 A 
ATOM      8  C   UNL     1      -0.686  -6.650   1.745  1.00  0.00     0.006 A 
ATOM      9  C   UNL     1      -3.086  -5.231   1.660  1.00  0.00     0.021 A 
ATOM     10  C   UNL     1      -1.898  -7.322   1.899  1.00  0.00     0.021 A 
ATOM     11  C   UNL     1      -3.098  -6.613   1.857  1.00  0.00     0.041 A 
ATOM     12  Cl  UNL     1      -4.594  -7.442   2.049  1.00  0.00    -0.084 Cl
ENDBRANCH   1   6
BRANCH   1  13
ATOM     13  C   UNL     1       0.740  -3.306   2.300  1.00  0.00    -0.036 A 
ATOM     14  C   UNL     1       0.242  -2.121   1.837  1.00  0.00     0.006 A 
ATOM     15  C   UNL     1       1.336  -3.466   3.520  1.00  0.00     0.006 A 
ATOM     16  C   UNL     1       0.349  -1.002   2.663  1.00  0.00     0.021 A 
ATOM     17  C   UNL     1       1.444  -2.346   4.345  1.00  0.00     0.021 A 
ATOM     18  C   UNL     1       0.949  -1.114   3.917  1.00  0.00     0.041 A 
ATOM     19  Cl  UNL     1       1.082   0.267   4.935  1.00  0.00    -0.084 Cl
ENDBRANCH   1  13
TORSDOF 3
ENDMDL
