MODEL 1
REMARK VINA RESULT:    -8.192      0.000      0.000
REMARK INTER + INTRA:         -12.522
REMARK INTER:                 -10.578
REMARK INTRA:                  -1.944
REMARK CONF_INDEPENDENT:        2.386
REMARK UNBOUND:                -1.944
REMARK SMILES CC1(C)C(C=C(Br)Br)C1C(=O)OC(C#N)c1cccc(Oc2ccccc2)c1
REMARK SMILES IDX 13 1 12 2 10 3 11 4 9 5 4 6 2 7 1 8 3 9 5 10 7 11 6 12 8 13
REMARK SMILES IDX 16 14 28 15 17 16 20 17 18 18 19 19 21 20 22 21 23 22 27 23
REMARK SMILES IDX 24 24 26 25 25 26 14 27 15 28
REMARK H PARENT
REMARK Flexibility Score: inf
ROOT
ATOM      1  C   UNL     1       1.214   2.988  -2.659  1.00  0.00     0.309 C
ENDROOT
BRANCH   1   2
ATOM      2  O   UNL     1       2.647   2.941  -2.655  1.00  0.00    -0.442 OA
BRANCH   2   3
ATOM      3  C   UNL     1       3.228   2.810  -3.877  1.00  0.00     0.311 C
ATOM      4  O   UNL     1       3.526   1.768  -4.445  1.00  0.00    -0.252 OA
BRANCH   3   5
ATOM      5  C   UNL     1       3.485   4.135  -4.500  1.00  0.00     0.113 C
ATOM      6  C   UNL     1       2.704   4.509  -5.719  1.00  0.00     0.035 C
ATOM      7  C   UNL     1       4.173   4.219  -5.825  1.00  0.00    -0.014 C
ATOM      8  C   UNL     1       4.572   2.963  -6.525  1.00  0.00     0.012 C
ATOM      9  C   UNL     1       5.137   5.341  -6.017  1.00  0.00     0.012 C
BRANCH   6  10
ATOM     10  C   UNL     1       1.725   3.563  -6.231  1.00  0.00     0.001 C
ATOM     11  Br  UNL     1       0.075   5.558  -7.405  1.00  0.00    -0.043 Br
ATOM     12  C   UNL     1       0.609   3.827  -6.930  1.00  0.00     0.057 C
ATOM     13  Br  UNL     1      -0.526   2.447  -7.500  1.00  0.00    -0.043 Br
ENDBRANCH   6  10
ENDBRANCH   3   5
ENDBRANCH   2   3
ENDBRANCH   1   2
BRANCH   1  14
ATOM     14  C   UNL     1       0.661   1.672  -2.230  1.00  0.00     0.011 A
ATOM     15  C   UNL     1      -0.008   0.862  -3.150  1.00  0.00     0.055 A
ATOM     16  C   UNL     1       0.813   1.248  -0.910  1.00  0.00     0.009 A
ATOM     17  C   UNL     1      -0.524  -0.369  -2.748  1.00  0.00     0.127 A
ATOM     18  C   UNL     1       0.296   0.016  -0.509  1.00  0.00     0.004 A
ATOM     19  C   UNL     1      -0.373  -0.792  -1.427  1.00  0.00     0.047 A
BRANCH  17  20
ATOM     20  O   UNL     1      -1.178  -1.159  -3.644  1.00  0.00    -0.457 OA
BRANCH  20  21
ATOM     21  C   UNL     1      -2.537  -0.952  -3.812  1.00  0.00     0.127 A
ATOM     22  C   UNL     1      -3.036  -0.757  -5.087  1.00  0.00     0.047 A
ATOM     23  C   UNL     1      -3.361  -0.945  -2.701  1.00  0.00     0.047 A
ATOM     24  C   UNL     1      -4.405  -0.548  -5.257  1.00  0.00     0.004 A
ATOM     25  C   UNL     1      -4.729  -0.736  -2.870  1.00  0.00     0.004 A
ATOM     26  C   UNL     1      -5.252  -0.538  -4.148  1.00  0.00     0.000 A
ENDBRANCH  20  21
ENDBRANCH  17  20
ENDBRANCH   1  14
BRANCH   1  27
ATOM     27  C   UNL     1       0.759   4.102  -1.803  1.00  0.00     0.113 C
ATOM     28  N   UNL     1       0.394   4.970  -1.125  1.00  0.00    -0.194 NA
ENDBRANCH   1  27
TORSDOF 8
ENDMDL
MODEL 2
REMARK VINA RESULT:    -7.953      2.540      3.867
REMARK INTER + INTRA:         -12.721
REMARK INTER:                 -10.340
REMARK INTRA:                  -2.381
REMARK CONF_INDEPENDENT:        2.386
REMARK UNBOUND:                -2.381
REMARK SMILES CC1(C)C(C=C(Br)Br)C1C(=O)OC(C#N)c1cccc(Oc2ccccc2)c1
REMARK SMILES IDX 13 1 12 2 10 3 11 4 9 5 4 6 2 7 1 8 3 9 5 10 7 11 6 12 8 13
REMARK SMILES IDX 16 14 28 15 17 16 20 17 18 18 19 19 21 20 22 21 23 22 27 23
REMARK SMILES IDX 24 24 26 25 25 26 14 27 15 28
REMARK H PARENT
REMARK Flexibility Score: inf
ROOT
ATOM      1  C   UNL     1       2.627   3.098  -2.690  1.00  0.00     0.309 C
ENDROOT
BRANCH   1   2
ATOM      2  O   UNL     1       1.411   3.540  -3.309  1.00  0.00    -0.442 OA
BRANCH   2   3
ATOM      3  C   UNL     1       0.748   4.527  -2.648  1.00  0.00     0.311 C
ATOM      4  O   UNL     1       0.847   4.817  -1.464  1.00  0.00    -0.252 OA
BRANCH   3   5
ATOM      5  C   UNL     1      -0.166   5.267  -3.556  1.00  0.00     0.113 C
ATOM      6  C   UNL     1       0.429   6.020  -4.702  1.00  0.00     0.035 C
ATOM      7  C   UNL     1      -0.179   6.762  -3.549  1.00  0.00    -0.014 C
ATOM      8  C   UNL     1       0.751   7.500  -2.644  1.00  0.00     0.012 C
ATOM      9  C   UNL     1      -1.504   7.429  -3.713  1.00  0.00     0.012 C
BRANCH   6  10
ATOM     10  C   UNL     1       1.873   5.984  -4.879  1.00  0.00     0.001 C
ATOM     11  Br  UNL     1       1.774   4.377  -7.222  1.00  0.00    -0.043 Br
ATOM     12  C   UNL     1       2.571   5.364  -5.845  1.00  0.00     0.057 C
ATOM     13  Br  UNL     1       4.445   5.444  -5.889  1.00  0.00    -0.043 Br
ENDBRANCH   6  10
ENDBRANCH   3   5
ENDBRANCH   2   3
ENDBRANCH   1   2
BRANCH   1  14
ATOM     14  C   UNL     1       2.315   2.233  -1.517  1.00  0.00     0.011 A
ATOM     15  C   UNL     1       1.104   1.543  -1.461  1.00  0.00     0.055 A
ATOM     16  C   UNL     1       3.235   2.112  -0.476  1.00  0.00     0.009 A
ATOM     17  C   UNL     1       0.813   0.734  -0.364  1.00  0.00     0.127 A
ATOM     18  C   UNL     1       2.943   1.303   0.622  1.00  0.00     0.004 A
ATOM     19  C   UNL     1       1.732   0.614   0.678  1.00  0.00     0.047 A
BRANCH  17  20
ATOM     20  O   UNL     1      -0.369   0.061  -0.307  1.00  0.00    -0.457 OA
BRANCH  20  21
ATOM     21  C   UNL     1      -1.042  -0.159  -1.499  1.00  0.00     0.127 A
ATOM     22  C   UNL     1      -2.004   0.747  -1.905  1.00  0.00     0.047 A
ATOM     23  C   UNL     1      -0.733  -1.278  -2.250  1.00  0.00     0.047 A
ATOM     24  C   UNL     1      -2.682   0.527  -3.105  1.00  0.00     0.004 A
ATOM     25  C   UNL     1      -1.411  -1.499  -3.449  1.00  0.00     0.004 A
ATOM     26  C   UNL     1      -2.385  -0.597  -3.877  1.00  0.00     0.000 A
ENDBRANCH  20  21
ENDBRANCH  17  20
ENDBRANCH   1  14
BRANCH   1  27
ATOM     27  C   UNL     1       3.466   2.412  -3.695  1.00  0.00     0.113 C
ATOM     28  N   UNL     1       4.133   1.877  -4.478  1.00  0.00    -0.194 NA
ENDBRANCH   1  27
TORSDOF 8
ENDMDL
MODEL 3
REMARK VINA RESULT:    -7.902      3.726      5.482
REMARK INTER + INTRA:         -12.436
REMARK INTER:                 -10.288
REMARK INTRA:                  -2.148
REMARK CONF_INDEPENDENT:        2.386
REMARK UNBOUND:                -2.148
REMARK SMILES CC1(C)C(C=C(Br)Br)C1C(=O)OC(C#N)c1cccc(Oc2ccccc2)c1
REMARK SMILES IDX 13 1 12 2 10 3 11 4 9 5 4 6 2 7 1 8 3 9 5 10 7 11 6 12 8 13
REMARK SMILES IDX 16 14 28 15 17 16 20 17 18 18 19 19 21 20 22 21 23 22 27 23
REMARK SMILES IDX 24 24 26 25 25 26 14 27 15 28
REMARK H PARENT
REMARK Flexibility Score: inf
ROOT
ATOM      1  C   UNL     1      -1.093   4.768  -1.072  1.00  0.00     0.309 C
ENDROOT
BRANCH   1   2
ATOM      2  O   UNL     1       0.264   5.230  -1.110  1.00  0.00    -0.442 OA
BRANCH   2   3
ATOM      3  C   UNL     1       1.049   4.651  -2.057  1.00  0.00     0.311 C
ATOM      4  O   UNL     1       2.250   4.434  -1.987  1.00  0.00    -0.252 OA
BRANCH   3   5
ATOM      5  C   UNL     1       0.261   4.283  -3.263  1.00  0.00     0.113 C
ATOM      6  C   UNL     1       0.944   4.312  -4.592  1.00  0.00     0.035 C
ATOM      7  C   UNL     1      -0.107   5.330  -4.264  1.00  0.00    -0.014 C
ATOM      8  C   UNL     1       0.346   6.737  -4.055  1.00  0.00     0.012 C
ATOM      9  C   UNL     1      -1.459   5.226  -4.887  1.00  0.00     0.012 C
BRANCH   6  10
ATOM     10  C   UNL     1       2.349   4.689  -4.640  1.00  0.00     0.001 C
ATOM     11  Br  UNL     1       2.337   5.249  -7.427  1.00  0.00    -0.043 Br
ATOM     12  C   UNL     1       3.060   5.089  -5.708  1.00  0.00     0.057 C
ATOM     13  Br  UNL     1       4.876   5.532  -5.550  1.00  0.00    -0.043 Br
ENDBRANCH   6  10
ENDBRANCH   3   5
ENDBRANCH   2   3
ENDBRANCH   1   2
BRANCH   1  14
ATOM     14  C   UNL     1      -1.217   3.634  -0.112  1.00  0.00     0.011 A
ATOM     15  C   UNL     1      -0.188   2.698   0.000  1.00  0.00     0.055 A
ATOM     16  C   UNL     1      -2.361   3.509   0.676  1.00  0.00     0.009 A
ATOM     17  C   UNL     1      -0.304   1.639   0.899  1.00  0.00     0.127 A
ATOM     18  C   UNL     1      -2.477   2.448   1.574  1.00  0.00     0.004 A
ATOM     19  C   UNL     1      -1.448   1.513   1.686  1.00  0.00     0.047 A
BRANCH  17  20
ATOM     20  O   UNL     1       0.700   0.725   1.008  1.00  0.00    -0.457 OA
BRANCH  20  21
ATOM     21  C   UNL     1       1.967   1.109   0.601  1.00  0.00     0.127 A
ATOM     22  C   UNL     1       2.265   1.124  -0.749  1.00  0.00     0.047 A
ATOM     23  C   UNL     1       2.901   1.469   1.555  1.00  0.00     0.047 A
ATOM     24  C   UNL     1       3.541   1.510  -1.160  1.00  0.00     0.004 A
ATOM     25  C   UNL     1       4.177   1.855   1.145  1.00  0.00     0.004 A
ATOM     26  C   UNL     1       4.497   1.877  -0.213  1.00  0.00     0.000 A
ENDBRANCH  20  21
ENDBRANCH  17  20
ENDBRANCH   1  14
BRANCH   1  27
ATOM     27  C   UNL     1      -1.985   5.896  -0.736  1.00  0.00     0.113 C
ATOM     28  N   UNL     1      -2.678   6.788  -0.468  1.00  0.00    -0.194 NA
ENDBRANCH   1  27
TORSDOF 8
ENDMDL
MODEL 4
REMARK VINA RESULT:    -7.659      3.743      5.186
REMARK INTER + INTRA:         -13.289
REMARK INTER:                 -10.046
REMARK INTRA:                  -3.243
REMARK CONF_INDEPENDENT:        2.386
REMARK UNBOUND:                -3.243
REMARK SMILES CC1(C)C(C=C(Br)Br)C1C(=O)OC(C#N)c1cccc(Oc2ccccc2)c1
REMARK SMILES IDX 13 1 12 2 10 3 11 4 9 5 4 6 2 7 1 8 3 9 5 10 7 11 6 12 8 13
REMARK SMILES IDX 16 14 28 15 17 16 20 17 18 18 19 19 21 20 22 21 23 22 27 23
REMARK SMILES IDX 24 24 26 25 25 26 14 27 15 28
REMARK H PARENT
REMARK Flexibility Score: inf
ROOT
ATOM      1  C   UNL     1      -1.964   3.214   0.682  1.00  0.00     0.309 C
ENDROOT
BRANCH   1   2
ATOM      2  O   UNL     1      -0.673   2.931   0.126  1.00  0.00    -0.442 OA
BRANCH   2   3
ATOM      3  C   UNL     1      -0.262   3.780  -0.854  1.00  0.00     0.311 C
ATOM      4  O   UNL     1      -0.001   4.969  -0.736  1.00  0.00    -0.252 OA
BRANCH   3   5
ATOM      5  C   UNL     1      -0.155   3.086  -2.163  1.00  0.00     0.113 C
ATOM      6  C   UNL     1       1.014   2.184  -2.394  1.00  0.00     0.035 C
ATOM      7  C   UNL     1       0.909   3.483  -3.135  1.00  0.00    -0.014 C
ATOM      8  C   UNL     1       1.875   4.561  -2.768  1.00  0.00     0.012 C
ATOM      9  C   UNL     1       0.540   3.483  -4.581  1.00  0.00     0.012 C
BRANCH   6  10
ATOM     10  C   UNL     1       1.985   2.021  -1.322  1.00  0.00     0.001 C
ATOM     11  Br  UNL     1       0.519  -0.023   0.002  1.00  0.00    -0.043 Br
ATOM     12  C   UNL     1       1.930   1.174  -0.280  1.00  0.00     0.057 C
ATOM     13  Br  UNL     1       3.299   1.124   1.000  1.00  0.00    -0.043 Br
ENDBRANCH   6  10
ENDBRANCH   3   5
ENDBRANCH   2   3
ENDBRANCH   1   2
BRANCH   1  14
ATOM     14  C   UNL     1      -2.998   3.184  -0.391  1.00  0.00     0.011 A
ATOM     15  C   UNL     1      -3.051   2.109  -1.280  1.00  0.00     0.055 A
ATOM     16  C   UNL     1      -3.914   4.229  -0.507  1.00  0.00     0.009 A
ATOM     17  C   UNL     1      -4.018   2.080  -2.283  1.00  0.00     0.127 A
ATOM     18  C   UNL     1      -4.881   4.200  -1.512  1.00  0.00     0.004 A
ATOM     19  C   UNL     1      -4.934   3.126  -2.400  1.00  0.00     0.047 A
BRANCH  17  20
ATOM     20  O   UNL     1      -4.070   1.032  -3.151  1.00  0.00    -0.457 OA
BRANCH  20  21
ATOM     21  C   UNL     1      -2.962   0.204  -3.225  1.00  0.00     0.127 A
ATOM     22  C   UNL     1      -1.837   0.644  -3.898  1.00  0.00     0.047 A
ATOM     23  C   UNL     1      -3.010  -1.042  -2.625  1.00  0.00     0.047 A
ATOM     24  C   UNL     1      -0.720  -0.190  -3.975  1.00  0.00     0.004 A
ATOM     25  C   UNL     1      -1.895  -1.875  -2.702  1.00  0.00     0.004 A
ATOM     26  C   UNL     1      -0.749  -1.450  -3.375  1.00  0.00     0.000 A
ENDBRANCH  20  21
ENDBRANCH  17  20
ENDBRANCH   1  14
BRANCH   1  27
ATOM     27  C   UNL     1      -2.248   2.258   1.771  1.00  0.00     0.113 C
ATOM     28  N   UNL     1      -2.462   1.501   2.624  1.00  0.00    -0.194 NA
ENDBRANCH   1  27
TORSDOF 8
ENDMDL
MODEL 5
REMARK VINA RESULT:    -7.657      3.907      5.341
REMARK INTER + INTRA:         -12.461
REMARK INTER:                 -10.043
REMARK INTRA:                  -2.418
REMARK CONF_INDEPENDENT:        2.386
REMARK UNBOUND:                -2.418
REMARK SMILES CC1(C)C(C=C(Br)Br)C1C(=O)OC(C#N)c1cccc(Oc2ccccc2)c1
REMARK SMILES IDX 13 1 12 2 10 3 11 4 9 5 4 6 2 7 1 8 3 9 5 10 7 11 6 12 8 13
REMARK SMILES IDX 16 14 28 15 17 16 20 17 18 18 19 19 21 20 22 21 23 22 27 23
REMARK SMILES IDX 24 24 26 25 25 26 14 27 15 28
REMARK H PARENT
REMARK Flexibility Score: inf
ROOT
ATOM      1  C   UNL     1      -1.853   3.018   0.596  1.00  0.00     0.309 C
ENDROOT
BRANCH   1   2
ATOM      2  O   UNL     1      -0.815   2.355  -0.139  1.00  0.00    -0.442 OA
BRANCH   2   3
ATOM      3  C   UNL     1       0.127   3.173  -0.682  1.00  0.00     0.311 C
ATOM      4  O   UNL     1      -0.032   4.318  -1.080  1.00  0.00    -0.252 OA
BRANCH   3   5
ATOM      5  C   UNL     1       1.451   2.502  -0.750  1.00  0.00     0.113 C
ATOM      6  C   UNL     1       1.493   1.048  -1.096  1.00  0.00     0.035 C
ATOM      7  C   UNL     1       1.838   1.502   0.292  1.00  0.00    -0.014 C
ATOM      8  C   UNL     1       0.874   1.166   1.381  1.00  0.00     0.012 C
ATOM      9  C   UNL     1       3.262   1.505   0.737  1.00  0.00     0.012 C
BRANCH   6  10
ATOM     10  C   UNL     1       0.236   0.363  -1.358  1.00  0.00     0.001 C
ATOM     11  Br  UNL     1       0.034   1.282  -4.041  1.00  0.00    -0.043 Br
ATOM     12  C   UNL     1      -0.480   0.358  -2.495  1.00  0.00     0.057 C
ATOM     13  Br  UNL     1      -2.087  -0.600  -2.623  1.00  0.00    -0.043 Br
ENDBRANCH   6  10
ENDBRANCH   3   5
ENDBRANCH   2   3
ENDBRANCH   1   2
BRANCH   1  14
ATOM     14  C   UNL     1      -2.986   3.352  -0.313  1.00  0.00     0.011 A
ATOM     15  C   UNL     1      -3.800   2.335  -0.816  1.00  0.00     0.055 A
ATOM     16  C   UNL     1      -3.236   4.680  -0.658  1.00  0.00     0.009 A
ATOM     17  C   UNL     1      -4.860   2.648  -1.665  1.00  0.00     0.127 A
ATOM     18  C   UNL     1      -4.297   4.991  -1.508  1.00  0.00     0.004 A
ATOM     19  C   UNL     1      -5.109   3.976  -2.012  1.00  0.00     0.047 A
BRANCH  17  20
ATOM     20  O   UNL     1      -5.653   1.657  -2.158  1.00  0.00    -0.457 OA
BRANCH  20  21
ATOM     21  C   UNL     1      -5.212   0.979  -3.282  1.00  0.00     0.127 A
ATOM     22  C   UNL     1      -5.467  -0.375  -3.396  1.00  0.00     0.047 A
ATOM     23  C   UNL     1      -4.527   1.674  -4.263  1.00  0.00     0.047 A
ATOM     24  C   UNL     1      -5.023  -1.059  -4.528  1.00  0.00     0.004 A
ATOM     25  C   UNL     1      -4.082   0.991  -5.394  1.00  0.00     0.004 A
ATOM     26  C   UNL     1      -4.331  -0.375  -5.528  1.00  0.00     0.000 A
ENDBRANCH  20  21
ENDBRANCH  17  20
ENDBRANCH   1  14
BRANCH   1  27
ATOM     27  C   UNL     1      -2.266   2.170   1.732  1.00  0.00     0.113 C
ATOM     28  N   UNL     1      -2.580   1.500   2.626  1.00  0.00    -0.194 NA
ENDBRANCH   1  27
TORSDOF 8
ENDMDL
MODEL 6
REMARK VINA RESULT:    -7.440      3.699      7.176
REMARK INTER + INTRA:         -12.421
REMARK INTER:                  -9.827
REMARK INTRA:                  -2.594
REMARK CONF_INDEPENDENT:        2.386
REMARK UNBOUND:                -2.594
REMARK SMILES CC1(C)C(C=C(Br)Br)C1C(=O)OC(C#N)c1cccc(Oc2ccccc2)c1
REMARK SMILES IDX 13 1 12 2 10 3 11 4 9 5 4 6 2 7 1 8 3 9 5 10 7 11 6 12 8 13
REMARK SMILES IDX 16 14 28 15 17 16 20 17 18 18 19 19 21 20 22 21 23 22 27 23
REMARK SMILES IDX 24 24 26 25 25 26 14 27 15 28
REMARK H PARENT
REMARK Flexibility Score: inf
ROOT
ATOM      1  C   UNL     1      -2.025   2.283   0.471  1.00  0.00     0.309 C
ENDROOT
BRANCH   1   2
ATOM      2  O   UNL     1      -2.451   3.645   0.327  1.00  0.00    -0.442 OA
BRANCH   2   3
ATOM      3  C   UNL     1      -3.059   3.943  -0.852  1.00  0.00     0.311 C
ATOM      4  O   UNL     1      -2.597   4.599  -1.775  1.00  0.00    -0.252 OA
BRANCH   3   5
ATOM      5  C   UNL     1      -4.425   3.360  -0.920  1.00  0.00     0.113 C
ATOM      6  C   UNL     1      -4.591   2.014  -1.548  1.00  0.00     0.035 C
ATOM      7  C   UNL     1      -5.121   3.236  -2.237  1.00  0.00    -0.014 C
ATOM      8  C   UNL     1      -4.424   3.678  -3.480  1.00  0.00     0.012 C
ATOM      9  C   UNL     1      -6.591   3.498  -2.253  1.00  0.00     0.012 C
BRANCH   6  10
ATOM     10  C   UNL     1      -3.407   1.335  -2.055  1.00  0.00     0.001 C
ATOM     11  Br  UNL     1      -4.866  -0.750  -3.321  1.00  0.00    -0.043 Br
ATOM     12  C   UNL     1      -3.350   0.209  -2.786  1.00  0.00     0.057 C
ATOM     13  Br  UNL     1      -1.706  -0.502  -3.340  1.00  0.00    -0.043 Br
ENDBRANCH   6  10
ENDBRANCH   3   5
ENDBRANCH   2   3
ENDBRANCH   1   2
BRANCH   1  14
ATOM     14  C   UNL     1      -0.637   2.127  -0.048  1.00  0.00     0.011 A
ATOM     15  C   UNL     1      -0.022   3.181  -0.726  1.00  0.00     0.055 A
ATOM     16  C   UNL     1       0.049   0.928   0.146  1.00  0.00     0.009 A
ATOM     17  C   UNL     1       1.277   3.034  -1.210  1.00  0.00     0.127 A
ATOM     18  C   UNL     1       1.349   0.783  -0.339  1.00  0.00     0.004 A
ATOM     19  C   UNL     1       1.963   1.835  -1.018  1.00  0.00     0.047 A
BRANCH  17  20
ATOM     20  O   UNL     1       1.877   4.061  -1.873  1.00  0.00    -0.457 OA
BRANCH  20  21
ATOM     21  C   UNL     1       1.116   5.188  -2.138  1.00  0.00     0.127 A
ATOM     22  C   UNL     1       0.370   5.238  -3.301  1.00  0.00     0.047 A
ATOM     23  C   UNL     1       1.121   6.234  -1.232  1.00  0.00     0.047 A
ATOM     24  C   UNL     1      -0.397   6.373  -3.569  1.00  0.00     0.004 A
ATOM     25  C   UNL     1       0.355   7.368  -1.500  1.00  0.00     0.004 A
ATOM     26  C   UNL     1      -0.405   7.437  -2.668  1.00  0.00     0.000 A
ENDBRANCH  20  21
ENDBRANCH  17  20
ENDBRANCH   1  14
BRANCH   1  27
ATOM     27  C   UNL     1      -2.152   1.879   1.886  1.00  0.00     0.113 C
ATOM     28  N   UNL     1      -2.250   1.571   3.000  1.00  0.00    -0.194 NA
ENDBRANCH   1  27
TORSDOF 8
ENDMDL
MODEL 7
REMARK VINA RESULT:    -7.292      3.173      5.423
REMARK INTER + INTRA:         -12.829
REMARK INTER:                  -9.679
REMARK INTRA:                  -3.150
REMARK CONF_INDEPENDENT:        2.386
REMARK UNBOUND:                -3.150
REMARK SMILES CC1(C)C(C=C(Br)Br)C1C(=O)OC(C#N)c1cccc(Oc2ccccc2)c1
REMARK SMILES IDX 13 1 12 2 10 3 11 4 9 5 4 6 2 7 1 8 3 9 5 10 7 11 6 12 8 13
REMARK SMILES IDX 16 14 28 15 17 16 20 17 18 18 19 19 21 20 22 21 23 22 27 23
REMARK SMILES IDX 24 24 26 25 25 26 14 27 15 28
REMARK H PARENT
REMARK Flexibility Score: inf
ROOT
ATOM      1  C   UNL     1      -1.103   4.698  -1.135  1.00  0.00     0.309 C
ENDROOT
BRANCH   1   2
ATOM      2  O   UNL     1       0.208   5.276  -1.089  1.00  0.00    -0.442 OA
BRANCH   2   3
ATOM      3  C   UNL     1       1.138   4.671  -1.875  1.00  0.00     0.311 C
ATOM      4  O   UNL     1       2.109   4.026  -1.505  1.00  0.00    -0.252 OA
BRANCH   3   5
ATOM      5  C   UNL     1       0.848   4.881  -3.317  1.00  0.00     0.113 C
ATOM      6  C   UNL     1       0.421   3.703  -4.133  1.00  0.00     0.035 C
ATOM      7  C   UNL     1       1.769   4.323  -4.355  1.00  0.00    -0.014 C
ATOM      8  C   UNL     1       2.963   3.535  -3.929  1.00  0.00     0.012 C
ATOM      9  C   UNL     1       2.008   5.159  -5.568  1.00  0.00     0.012 C
BRANCH   6  10
ATOM     10  C   UNL     1       0.301   2.411  -3.474  1.00  0.00     0.001 C
ATOM     11  Br  UNL     1      -2.527   2.287  -3.732  1.00  0.00    -0.043 Br
ATOM     12  C   UNL     1      -0.818   1.707  -3.234  1.00  0.00     0.057 C
ATOM     13  Br  UNL     1      -0.750   0.048  -2.362  1.00  0.00    -0.043 Br
ENDBRANCH   6  10
ENDBRANCH   3   5
ENDBRANCH   2   3
ENDBRANCH   1   2
BRANCH   1  14
ATOM     14  C   UNL     1      -1.207   3.595  -0.137  1.00  0.00     0.011 A
ATOM     15  C   UNL     1      -0.171   2.669  -0.009  1.00  0.00     0.055 A
ATOM     16  C   UNL     1      -2.340   3.490   0.670  1.00  0.00     0.009 A
ATOM     17  C   UNL     1      -0.269   1.639   0.925  1.00  0.00     0.127 A
ATOM     18  C   UNL     1      -2.437   2.458   1.604  1.00  0.00     0.004 A
ATOM     19  C   UNL     1      -1.402   1.532   1.731  1.00  0.00     0.047 A
BRANCH  17  20
ATOM     20  O   UNL     1       0.741   0.734   1.050  1.00  0.00    -0.457 OA
BRANCH  20  21
ATOM     21  C   UNL     1       2.002   1.115   0.621  1.00  0.00     0.127 A
ATOM     22  C   UNL     1       2.949   1.484   1.557  1.00  0.00     0.047 A
ATOM     23  C   UNL     1       2.281   1.116  -0.735  1.00  0.00     0.047 A
ATOM     24  C   UNL     1       4.220   1.868   1.125  1.00  0.00     0.004 A
ATOM     25  C   UNL     1       3.549   1.500  -1.166  1.00  0.00     0.004 A
ATOM     26  C   UNL     1       4.520   1.875  -0.237  1.00  0.00     0.000 A
ENDBRANCH  20  21
ENDBRANCH  17  20
ENDBRANCH   1  14
BRANCH   1  27
ATOM     27  C   UNL     1      -2.112   5.755  -0.921  1.00  0.00     0.113 C
ATOM     28  N   UNL     1      -2.902   6.586  -0.742  1.00  0.00    -0.194 NA
ENDBRANCH   1  27
TORSDOF 8
ENDMDL
MODEL 8
REMARK VINA RESULT:    -7.014      3.353      4.708
REMARK INTER + INTRA:         -12.625
REMARK INTER:                  -9.401
REMARK INTRA:                  -3.224
REMARK CONF_INDEPENDENT:        2.386
REMARK UNBOUND:                -3.224
REMARK SMILES CC1(C)C(C=C(Br)Br)C1C(=O)OC(C#N)c1cccc(Oc2ccccc2)c1
REMARK SMILES IDX 13 1 12 2 10 3 11 4 9 5 4 6 2 7 1 8 3 9 5 10 7 11 6 12 8 13
REMARK SMILES IDX 16 14 28 15 17 16 20 17 18 18 19 19 21 20 22 21 23 22 27 23
REMARK SMILES IDX 24 24 26 25 25 26 14 27 15 28
REMARK H PARENT
REMARK Flexibility Score: inf
ROOT
ATOM      1  C   UNL     1       2.625   3.094  -2.583  1.00  0.00     0.309 C
ENDROOT
BRANCH   1   2
ATOM      2  O   UNL     1       1.425   3.678  -3.108  1.00  0.00    -0.442 OA
BRANCH   2   3
ATOM      3  C   UNL     1       0.750   4.490  -2.251  1.00  0.00     0.311 C
ATOM      4  O   UNL     1       1.094   4.822  -1.125  1.00  0.00    -0.252 OA
BRANCH   3   5
ATOM      5  C   UNL     1      -0.526   4.965  -2.846  1.00  0.00     0.113 C
ATOM      6  C   UNL     1      -1.808   4.417  -2.306  1.00  0.00     0.035 C
ATOM      7  C   UNL     1      -1.350   4.041  -3.685  1.00  0.00    -0.014 C
ATOM      8  C   UNL     1      -0.893   2.636  -3.894  1.00  0.00     0.012 C
ATOM      9  C   UNL     1      -2.028   4.631  -4.876  1.00  0.00     0.012 C
BRANCH   6  10
ATOM     10  C   UNL     1      -1.745   3.453  -1.218  1.00  0.00     0.001 C
ATOM     11  Br  UNL     1      -2.625   5.291   0.764  1.00  0.00    -0.043 Br
ATOM     12  C   UNL     1      -2.041   3.650   0.078  1.00  0.00     0.057 C
ATOM     13  Br  UNL     1      -1.890   2.260   1.327  1.00  0.00    -0.043 Br
ENDBRANCH   6  10
ENDBRANCH   3   5
ENDBRANCH   2   3
ENDBRANCH   1   2
BRANCH   1  14
ATOM     14  C   UNL     1       2.294   2.182  -1.452  1.00  0.00     0.011 A
ATOM     15  C   UNL     1       1.078   1.498  -1.440  1.00  0.00     0.055 A
ATOM     16  C   UNL     1       3.201   2.010  -0.407  1.00  0.00     0.009 A
ATOM     17  C   UNL     1       0.769   0.644  -0.382  1.00  0.00     0.127 A
ATOM     18  C   UNL     1       2.891   1.156   0.652  1.00  0.00     0.004 A
ATOM     19  C   UNL     1       1.675   0.473   0.665  1.00  0.00     0.047 A
BRANCH  17  20
ATOM     20  O   UNL     1      -0.418  -0.023  -0.368  1.00  0.00    -0.457 OA
BRANCH  20  21
ATOM     21  C   UNL     1      -1.034  -0.264  -1.585  1.00  0.00     0.127 A
ATOM     22  C   UNL     1      -0.441  -1.136  -2.479  1.00  0.00     0.047 A
ATOM     23  C   UNL     1      -2.227   0.375  -1.875  1.00  0.00     0.047 A
ATOM     24  C   UNL     1      -1.061  -1.379  -3.706  1.00  0.00     0.004 A
ATOM     25  C   UNL     1      -2.846   0.134  -3.101  1.00  0.00     0.004 A
ATOM     26  C   UNL     1      -2.265  -0.744  -4.016  1.00  0.00     0.000 A
ENDBRANCH  20  21
ENDBRANCH  17  20
ENDBRANCH   1  14
BRANCH   1  27
ATOM     27  C   UNL     1       3.353   2.410  -3.671  1.00  0.00     0.113 C
ATOM     28  N   UNL     1       3.934   1.875  -4.521  1.00  0.00    -0.194 NA
ENDBRANCH   1  27
TORSDOF 8
ENDMDL
MODEL 9
REMARK VINA RESULT:    -6.828      2.584      5.109
REMARK INTER + INTRA:         -12.612
REMARK INTER:                  -9.214
REMARK INTRA:                  -3.398
REMARK CONF_INDEPENDENT:        2.386
REMARK UNBOUND:                -3.398
REMARK SMILES CC1(C)C(C=C(Br)Br)C1C(=O)OC(C#N)c1cccc(Oc2ccccc2)c1
REMARK SMILES IDX 13 1 12 2 10 3 11 4 9 5 4 6 2 7 1 8 3 9 5 10 7 11 6 12 8 13
REMARK SMILES IDX 16 14 28 15 17 16 20 17 18 18 19 19 21 20 22 21 23 22 27 23
REMARK SMILES IDX 24 24 26 25 25 26 14 27 15 28
REMARK H PARENT
REMARK Flexibility Score: inf
ROOT
ATOM      1  C   UNL     1       1.492   4.407  -2.627  1.00  0.00     0.309 C
ENDROOT
BRANCH   1   2
ATOM      2  O   UNL     1       1.002   3.752  -1.448  1.00  0.00    -0.442 OA
BRANCH   2   3
ATOM      3  C   UNL     1       1.672   2.625  -1.089  1.00  0.00     0.311 C
ATOM      4  O   UNL     1       2.844   2.540  -0.750  1.00  0.00    -0.252 OA
BRANCH   3   5
ATOM      5  C   UNL     1       0.793   1.429  -1.152  1.00  0.00     0.113 C
ATOM      6  C   UNL     1      -0.584   1.529  -0.577  1.00  0.00     0.035 C
ATOM      7  C   UNL     1       0.454   0.682   0.099  1.00  0.00    -0.014 C
ATOM      8  C   UNL     1       0.984   1.165   1.408  1.00  0.00     0.012 C
ATOM      9  C   UNL     1       0.375  -0.805  -0.000  1.00  0.00     0.012 C
BRANCH   6  10
ATOM     10  C   UNL     1      -0.999   2.796   0.007  1.00  0.00     0.001 C
ATOM     11  Br  UNL     1      -2.924   3.354  -2.009  1.00  0.00    -0.043 Br
ATOM     12  C   UNL     1      -1.930   3.650  -0.450  1.00  0.00     0.057 C
ATOM     13  Br  UNL     1      -2.314   5.242   0.463  1.00  0.00    -0.043 Br
ENDBRANCH   6  10
ENDBRANCH   3   5
ENDBRANCH   2   3
ENDBRANCH   1   2
BRANCH   1  14
ATOM     14  C   UNL     1       1.370   3.498  -3.801  1.00  0.00     0.011 A
ATOM     15  C   UNL     1       0.167   2.835  -4.050  1.00  0.00     0.055 A
ATOM     16  C   UNL     1       2.458   3.311  -4.654  1.00  0.00     0.009 A
ATOM     17  C   UNL     1       0.054   1.985  -5.149  1.00  0.00     0.127 A
ATOM     18  C   UNL     1       2.344   2.460  -5.754  1.00  0.00     0.004 A
ATOM     19  C   UNL     1       1.142   1.797  -6.001  1.00  0.00     0.047 A
BRANCH  17  20
ATOM     20  O   UNL     1      -1.119   1.338  -5.392  1.00  0.00    -0.457 OA
BRANCH  20  21
ATOM     21  C   UNL     1      -1.533   0.391  -4.469  1.00  0.00     0.127 A
ATOM     22  C   UNL     1      -0.583  -0.351  -3.793  1.00  0.00     0.047 A
ATOM     23  C   UNL     1      -2.887   0.212  -4.249  1.00  0.00     0.047 A
ATOM     24  C   UNL     1      -0.999  -1.305  -2.864  1.00  0.00     0.004 A
ATOM     25  C   UNL     1      -3.304  -0.742  -3.322  1.00  0.00     0.004 A
ATOM     26  C   UNL     1      -2.361  -1.500  -2.628  1.00  0.00     0.000 A
ENDBRANCH  20  21
ENDBRANCH  17  20
ENDBRANCH   1  14
BRANCH   1  27
ATOM     27  C   UNL     1       0.767   5.680  -2.816  1.00  0.00     0.113 C
ATOM     28  N   UNL     1       0.188   6.675  -2.960  1.00  0.00    -0.194 NA
ENDBRANCH   1  27
TORSDOF 8
ENDMDL
