MODEL 1
REMARK VINA RESULT:    -7.982      0.000      0.000
REMARK INTER + INTRA:         -11.764
REMARK INTER:                 -10.070
REMARK INTRA:                  -1.694
REMARK CONF_INDEPENDENT:        2.088
REMARK UNBOUND:                -1.694
REMARK SMILES CC1(C)[C@H](C=C(Cl)Cl)[C@H]1C(=O)OCc1cccc(Oc2ccccc2)c1
REMARK SMILES IDX 13 1 12 2 10 3 11 4 9 5 4 6 2 7 1 8 3 9 5 10 7 11 6 12 8 13
REMARK SMILES IDX 14 14 26 15 15 16 18 17 16 18 17 19 19 20 20 21 21 22 25 23
REMARK SMILES IDX 22 24 24 25 23 26
REMARK H PARENT
REMARK Flexibility Score: inf
ROOT
ATOM      1  C   UNL     1      -3.001   3.980   0.670  1.00  0.00     0.268 C 
ENDROOT
BRANCH   1   2
ATOM      2  O   UNL     1      -1.828   3.178   0.613  1.00  0.00    -0.461 OA
BRANCH   2   3
ATOM      3  C   UNL     1      -1.819   2.079   1.421  1.00  0.00     0.310 C 
ATOM      4  O   UNL     1      -2.656   1.787   2.264  1.00  0.00    -0.252 OA
BRANCH   3   5
ATOM      5  C   UNL     1      -0.636   1.218   1.171  1.00  0.00     0.113 C 
ATOM      6  C   UNL     1       0.486   1.775   0.353  1.00  0.00     0.035 C 
ATOM      7  C   UNL     1      -0.378   0.680  -0.201  1.00  0.00    -0.014 C 
ATOM      8  C   UNL     1       0.240  -0.669  -0.357  1.00  0.00     0.012 C 
ATOM      9  C   UNL     1      -1.386   0.992  -1.255  1.00  0.00     0.012 C 
BRANCH   6  10
ATOM     10  C   UNL     1       1.851   1.495   0.775  1.00  0.00     0.011 C 
ATOM     11  Cl  UNL     1       2.966   2.240  -1.562  1.00  0.00    -0.071 Cl
ATOM     12  C   UNL     1       2.977   1.650   0.060  1.00  0.00     0.103 C 
ATOM     13  Cl  UNL     1       4.512   1.253   0.751  1.00  0.00    -0.071 Cl
ENDBRANCH   6  10
ENDBRANCH   3   5
ENDBRANCH   2   3
ENDBRANCH   1   2
BRANCH   1  14
ATOM     14  C   UNL     1      -3.942   3.561  -0.408  1.00  0.00    -0.007 A 
ATOM     15  C   UNL     1      -4.139   2.205  -0.674  1.00  0.00     0.054 A 
ATOM     16  C   UNL     1      -4.626   4.524  -1.150  1.00  0.00     0.007 A 
ATOM     17  C   UNL     1      -5.020   1.814  -1.682  1.00  0.00     0.127 A 
ATOM     18  C   UNL     1      -5.506   4.132  -2.158  1.00  0.00     0.004 A 
ATOM     19  C   UNL     1      -5.703   2.777  -2.424  1.00  0.00     0.047 A 
BRANCH  17  20
ATOM     20  O   UNL     1      -5.212   0.492  -1.942  1.00  0.00    -0.457 OA
BRANCH  20  21
ATOM     21  C   UNL     1      -4.544  -0.056  -3.023  1.00  0.00     0.127 A 
ATOM     22  C   UNL     1      -4.943   0.283  -4.305  1.00  0.00     0.047 A 
ATOM     23  C   UNL     1      -3.495  -0.928  -2.797  1.00  0.00     0.047 A 
ATOM     24  C   UNL     1      -4.270  -0.269  -5.394  1.00  0.00     0.004 A 
ATOM     25  C   UNL     1      -2.821  -1.479  -3.888  1.00  0.00     0.004 A 
ATOM     26  C   UNL     1      -3.209  -1.149  -5.186  1.00  0.00     0.000 A 
ENDBRANCH  20  21
ENDBRANCH  17  20
ENDBRANCH   1  14
TORSDOF 7
ENDMDL
MODEL 2
REMARK VINA RESULT:    -7.800      3.864      7.555
REMARK INTER + INTRA:         -11.620
REMARK INTER:                  -9.888
REMARK INTRA:                  -1.732
REMARK CONF_INDEPENDENT:        2.088
REMARK UNBOUND:                -1.732
REMARK SMILES CC1(C)[C@H](C=C(Cl)Cl)[C@H]1C(=O)OCc1cccc(Oc2ccccc2)c1
REMARK SMILES IDX 13 1 12 2 10 3 11 4 9 5 4 6 2 7 1 8 3 9 5 10 7 11 6 12 8 13
REMARK SMILES IDX 14 14 26 15 15 16 18 17 16 18 17 19 19 20 20 21 21 22 25 23
REMARK SMILES IDX 22 24 24 25 23 26
REMARK H PARENT
REMARK Flexibility Score: inf
ROOT
ATOM      1  C   UNL     1      -4.634  -0.711  -2.499  1.00  0.00     0.268 C 
ENDROOT
BRANCH   1   2
ATOM      2  O   UNL     1      -5.174  -1.261  -3.694  1.00  0.00    -0.461 OA
BRANCH   2   3
ATOM      3  C   UNL     1      -5.701  -0.363  -4.576  1.00  0.00     0.310 C 
ATOM      4  O   UNL     1      -6.743  -0.484  -5.204  1.00  0.00    -0.252 OA
BRANCH   3   5
ATOM      5  C   UNL     1      -4.847   0.844  -4.713  1.00  0.00     0.113 C 
ATOM      6  C   UNL     1      -5.306   1.939  -5.623  1.00  0.00     0.035 C 
ATOM      7  C   UNL     1      -4.115   1.103  -5.991  1.00  0.00    -0.014 C 
ATOM      8  C   UNL     1      -2.777   1.762  -5.951  1.00  0.00     0.012 C 
ATOM      9  C   UNL     1      -4.234   0.074  -7.064  1.00  0.00     0.012 C 
BRANCH   6  10
ATOM     10  C   UNL     1      -5.134   3.317  -5.186  1.00  0.00     0.011 C 
ATOM     11  Cl  UNL     1      -5.993   4.396  -7.500  1.00  0.00    -0.071 Cl
ATOM     12  C   UNL     1      -5.388   4.435  -5.883  1.00  0.00     0.103 C 
ATOM     13  Cl  UNL     1      -5.110   5.988  -5.176  1.00  0.00    -0.071 Cl
ENDBRANCH   6  10
ENDBRANCH   3   5
ENDBRANCH   2   3
ENDBRANCH   1   2
BRANCH   1  14
ATOM     14  C   UNL     1      -3.161  -0.536  -2.654  1.00  0.00    -0.007 A 
ATOM     15  C   UNL     1      -2.533   0.589  -2.121  1.00  0.00     0.054 A 
ATOM     16  C   UNL     1      -2.413  -1.500  -3.330  1.00  0.00     0.007 A 
ATOM     17  C   UNL     1      -1.155   0.751  -2.266  1.00  0.00     0.127 A 
ATOM     18  C   UNL     1      -1.035  -1.337  -3.475  1.00  0.00     0.004 A 
ATOM     19  C   UNL     1      -0.407  -0.211  -2.942  1.00  0.00     0.047 A 
BRANCH  17  20
ATOM     20  O   UNL     1      -0.541   1.850  -1.746  1.00  0.00    -0.457 OA
BRANCH  20  21
ATOM     21  C   UNL     1       0.628   1.656  -1.030  1.00  0.00     0.127 A 
ATOM     22  C   UNL     1       0.576   0.973   0.172  1.00  0.00     0.047 A 
ATOM     23  C   UNL     1       1.817   2.150  -1.534  1.00  0.00     0.047 A 
ATOM     24  C   UNL     1       1.753   0.778   0.893  1.00  0.00     0.004 A 
ATOM     25  C   UNL     1       2.995   1.954  -0.812  1.00  0.00     0.004 A 
ATOM     26  C   UNL     1       2.963   1.268   0.401  1.00  0.00     0.000 A 
ENDBRANCH  20  21
ENDBRANCH  17  20
ENDBRANCH   1  14
TORSDOF 7
ENDMDL
MODEL 3
REMARK VINA RESULT:    -7.741      3.539      4.983
REMARK INTER + INTRA:         -11.625
REMARK INTER:                  -9.829
REMARK INTRA:                  -1.796
REMARK CONF_INDEPENDENT:        2.088
REMARK UNBOUND:                -1.796
REMARK SMILES CC1(C)[C@H](C=C(Cl)Cl)[C@H]1C(=O)OCc1cccc(Oc2ccccc2)c1
REMARK SMILES IDX 13 1 12 2 10 3 11 4 9 5 4 6 2 7 1 8 3 9 5 10 7 11 6 12 8 13
REMARK SMILES IDX 14 14 26 15 15 16 18 17 16 18 17 19 19 20 20 21 21 22 25 23
REMARK SMILES IDX 22 24 24 25 23 26
REMARK H PARENT
REMARK Flexibility Score: inf
ROOT
ATOM      1  C   UNL     1      -0.285   2.670  -1.154  1.00  0.00     0.268 C 
ENDROOT
BRANCH   1   2
ATOM      2  O   UNL     1       1.088   2.967  -0.939  1.00  0.00    -0.461 OA
BRANCH   2   3
ATOM      3  C   UNL     1       1.675   3.772  -1.871  1.00  0.00     0.310 C 
ATOM      4  O   UNL     1       1.788   4.989  -1.817  1.00  0.00    -0.252 OA
BRANCH   3   5
ATOM      5  C   UNL     1       2.196   2.995  -3.024  1.00  0.00     0.113 C 
ATOM      6  C   UNL     1       2.826   3.742  -4.157  1.00  0.00     0.035 C 
ATOM      7  C   UNL     1       1.502   3.062  -4.348  1.00  0.00    -0.014 C 
ATOM      8  C   UNL     1       1.471   1.854  -5.223  1.00  0.00     0.012 C 
ATOM      9  C   UNL     1       0.254   3.876  -4.421  1.00  0.00     0.012 C 
BRANCH   6  10
ATOM     10  C   UNL     1       4.031   3.191  -4.760  1.00  0.00     0.011 C 
ATOM     11  Cl  UNL     1       4.389   5.245  -6.466  1.00  0.00    -0.071 Cl
ATOM     12  C   UNL     1       4.777   3.728  -5.737  1.00  0.00     0.103 C 
ATOM     13  Cl  UNL     1       6.182   2.905  -6.319  1.00  0.00    -0.071 Cl
ENDBRANCH   6  10
ENDBRANCH   3   5
ENDBRANCH   2   3
ENDBRANCH   1   2
BRANCH   1  14
ATOM     14  C   UNL     1      -0.428   1.238  -1.544  1.00  0.00    -0.007 A 
ATOM     15  C   UNL     1      -0.970   0.904  -2.785  1.00  0.00     0.054 A 
ATOM     16  C   UNL     1      -0.019   0.232  -0.667  1.00  0.00     0.007 A 
ATOM     17  C   UNL     1      -1.103  -0.436  -3.149  1.00  0.00     0.127 A 
ATOM     18  C   UNL     1      -0.153  -1.107  -1.032  1.00  0.00     0.004 A 
ATOM     19  C   UNL     1      -0.695  -1.441  -2.273  1.00  0.00     0.047 A 
BRANCH  17  20
ATOM     20  O   UNL     1      -1.631  -0.763  -4.361  1.00  0.00    -0.457 OA
BRANCH  20  21
ATOM     21  C   UNL     1      -2.998  -0.616  -4.528  1.00  0.00     0.127 A 
ATOM     22  C   UNL     1      -3.482  -0.147  -5.737  1.00  0.00     0.047 A 
ATOM     23  C   UNL     1      -3.844  -0.941  -3.484  1.00  0.00     0.047 A 
ATOM     24  C   UNL     1      -4.857   0.000  -5.906  1.00  0.00     0.004 A 
ATOM     25  C   UNL     1      -5.221  -0.793  -3.654  1.00  0.00     0.004 A 
ATOM     26  C   UNL     1      -5.727  -0.323  -4.866  1.00  0.00     0.000 A 
ENDBRANCH  20  21
ENDBRANCH  17  20
ENDBRANCH   1  14
TORSDOF 7
ENDMDL
MODEL 4
REMARK VINA RESULT:    -7.112      3.474      5.135
REMARK INTER + INTRA:         -11.453
REMARK INTER:                  -9.200
REMARK INTRA:                  -2.253
REMARK CONF_INDEPENDENT:        2.088
REMARK UNBOUND:                -2.253
REMARK SMILES CC1(C)[C@H](C=C(Cl)Cl)[C@H]1C(=O)OCc1cccc(Oc2ccccc2)c1
REMARK SMILES IDX 13 1 12 2 10 3 11 4 9 5 4 6 2 7 1 8 3 9 5 10 7 11 6 12 8 13
REMARK SMILES IDX 14 14 26 15 15 16 18 17 16 18 17 19 19 20 20 21 21 22 25 23
REMARK SMILES IDX 22 24 24 25 23 26
REMARK H PARENT
REMARK Flexibility Score: inf
ROOT
ATOM      1  C   UNL     1      -0.293   2.646  -1.209  1.00  0.00     0.268 C 
ENDROOT
BRANCH   1   2
ATOM      2  O   UNL     1       1.091   2.961  -1.123  1.00  0.00    -0.461 OA
BRANCH   2   3
ATOM      3  C   UNL     1       1.507   4.020  -1.877  1.00  0.00     0.310 C 
ATOM      4  O   UNL     1       1.452   5.202  -1.566  1.00  0.00    -0.252 OA
BRANCH   3   5
ATOM      5  C   UNL     1       2.065   3.585  -3.182  1.00  0.00     0.113 C 
ATOM      6  C   UNL     1       1.658   2.249  -3.717  1.00  0.00     0.035 C 
ATOM      7  C   UNL     1       3.062   2.471  -3.236  1.00  0.00    -0.014 C 
ATOM      8  C   UNL     1       4.142   2.502  -4.264  1.00  0.00     0.012 C 
ATOM      9  C   UNL     1       3.501   1.888  -1.936  1.00  0.00     0.012 C 
BRANCH   6  10
ATOM     10  C   UNL     1       1.375   2.133  -5.141  1.00  0.00     0.011 C 
ATOM     11  Cl  UNL     1      -1.046   3.305  -4.986  1.00  0.00    -0.071 Cl
ATOM     12  C   UNL     1       0.275   2.539  -5.793  1.00  0.00     0.103 C 
ATOM     13  Cl  UNL     1       0.133   2.304  -7.500  1.00  0.00    -0.071 Cl
ENDBRANCH   6  10
ENDBRANCH   3   5
ENDBRANCH   2   3
ENDBRANCH   1   2
BRANCH   1  14
ATOM     14  C   UNL     1      -0.453   1.201  -1.542  1.00  0.00    -0.007 A 
ATOM     15  C   UNL     1      -0.959   0.825  -2.787  1.00  0.00     0.054 A 
ATOM     16  C   UNL     1      -0.095   0.227  -0.611  1.00  0.00     0.007 A 
ATOM     17  C   UNL     1      -1.108  -0.526  -3.099  1.00  0.00     0.127 A 
ATOM     18  C   UNL     1      -0.244  -1.124  -0.923  1.00  0.00     0.004 A 
ATOM     19  C   UNL     1      -0.751  -1.500  -2.167  1.00  0.00     0.047 A 
BRANCH  17  20
ATOM     20  O   UNL     1      -1.602  -0.893  -4.313  1.00  0.00    -0.457 OA
BRANCH  20  21
ATOM     21  C   UNL     1      -2.933  -0.619  -4.577  1.00  0.00     0.127 A 
ATOM     22  C   UNL     1      -3.905  -1.125  -3.732  1.00  0.00     0.047 A 
ATOM     23  C   UNL     1      -3.257   0.153  -5.677  1.00  0.00     0.047 A 
ATOM     24  C   UNL     1      -5.245  -0.848  -3.997  1.00  0.00     0.004 A 
ATOM     25  C   UNL     1      -4.599   0.429  -5.942  1.00  0.00     0.004 A 
ATOM     26  C   UNL     1      -5.593  -0.071  -5.101  1.00  0.00     0.000 A 
ENDBRANCH  20  21
ENDBRANCH  17  20
ENDBRANCH   1  14
TORSDOF 7
ENDMDL
MODEL 5
REMARK VINA RESULT:    -6.974      2.183      3.119
REMARK INTER + INTRA:         -11.496
REMARK INTER:                  -9.062
REMARK INTRA:                  -2.434
REMARK CONF_INDEPENDENT:        2.088
REMARK UNBOUND:                -2.434
REMARK SMILES CC1(C)[C@H](C=C(Cl)Cl)[C@H]1C(=O)OCc1cccc(Oc2ccccc2)c1
REMARK SMILES IDX 13 1 12 2 10 3 11 4 9 5 4 6 2 7 1 8 3 9 5 10 7 11 6 12 8 13
REMARK SMILES IDX 14 14 26 15 15 16 18 17 16 18 17 19 19 20 20 21 21 22 25 23
REMARK SMILES IDX 22 24 24 25 23 26
REMARK H PARENT
REMARK Flexibility Score: inf
ROOT
ATOM      1  C   UNL     1      -2.235   2.609   1.885  1.00  0.00     0.268 C 
ENDROOT
BRANCH   1   2
ATOM      2  O   UNL     1      -1.480   1.418   1.705  1.00  0.00    -0.461 OA
BRANCH   2   3
ATOM      3  C   UNL     1      -0.127   1.578   1.628  1.00  0.00     0.310 C 
ATOM      4  O   UNL     1       0.670   1.502   2.553  1.00  0.00    -0.252 OA
BRANCH   3   5
ATOM      5  C   UNL     1       0.318   1.868   0.241  1.00  0.00     0.113 C 
ATOM      6  C   UNL     1       0.341   0.744  -0.746  1.00  0.00     0.035 C 
ATOM      7  C   UNL     1       1.627   1.339  -0.252  1.00  0.00    -0.014 C 
ATOM      8  C   UNL     1       2.427   2.144  -1.219  1.00  0.00     0.012 C 
ATOM      9  C   UNL     1       2.466   0.585   0.724  1.00  0.00     0.012 C 
BRANCH   6  10
ATOM     10  C   UNL     1      -0.120   1.008  -2.101  1.00  0.00     0.011 C 
ATOM     11  Cl  UNL     1      -1.254  -1.415  -2.428  1.00  0.00    -0.071 Cl
ATOM     12  C   UNL     1      -0.800   0.180  -2.910  1.00  0.00     0.103 C 
ATOM     13  Cl  UNL     1      -1.255   0.689  -4.499  1.00  0.00    -0.071 Cl
ENDBRANCH   6  10
ENDBRANCH   3   5
ENDBRANCH   2   3
ENDBRANCH   1   2
BRANCH   1  14
ATOM     14  C   UNL     1      -2.635   3.150   0.554  1.00  0.00    -0.007 A 
ATOM     15  C   UNL     1      -3.745   2.626  -0.107  1.00  0.00     0.054 A 
ATOM     16  C   UNL     1      -1.898   4.182  -0.029  1.00  0.00     0.007 A 
ATOM     17  C   UNL     1      -4.119   3.133  -1.351  1.00  0.00     0.127 A 
ATOM     18  C   UNL     1      -2.272   4.688  -1.273  1.00  0.00     0.004 A 
ATOM     19  C   UNL     1      -3.382   4.163  -1.934  1.00  0.00     0.047 A 
BRANCH  17  20
ATOM     20  O   UNL     1      -5.203   2.621  -1.997  1.00  0.00    -0.457 OA
BRANCH  20  21
ATOM     21  C   UNL     1      -5.059   1.396  -2.626  1.00  0.00     0.127 A 
ATOM     22  C   UNL     1      -5.002   1.352  -4.008  1.00  0.00     0.047 A 
ATOM     23  C   UNL     1      -4.976   0.250  -1.858  1.00  0.00     0.047 A 
ATOM     24  C   UNL     1      -4.858   0.118  -4.642  1.00  0.00     0.004 A 
ATOM     25  C   UNL     1      -4.831  -0.985  -2.493  1.00  0.00     0.004 A 
ATOM     26  C   UNL     1      -4.772  -1.050  -3.885  1.00  0.00     0.000 A 
ENDBRANCH  20  21
ENDBRANCH  17  20
ENDBRANCH   1  14
TORSDOF 7
ENDMDL
MODEL 6
REMARK VINA RESULT:    -6.806      2.142      5.797
REMARK INTER + INTRA:         -11.504
REMARK INTER:                  -8.894
REMARK INTRA:                  -2.611
REMARK CONF_INDEPENDENT:        2.088
REMARK UNBOUND:                -2.611
REMARK SMILES CC1(C)[C@H](C=C(Cl)Cl)[C@H]1C(=O)OCc1cccc(Oc2ccccc2)c1
REMARK SMILES IDX 13 1 12 2 10 3 11 4 9 5 4 6 2 7 1 8 3 9 5 10 7 11 6 12 8 13
REMARK SMILES IDX 14 14 26 15 15 16 18 17 16 18 17 19 19 20 20 21 21 22 25 23
REMARK SMILES IDX 22 24 24 25 23 26
REMARK H PARENT
REMARK Flexibility Score: inf
ROOT
ATOM      1  C   UNL     1      -5.234  -0.404  -1.862  1.00  0.00     0.268 C 
ENDROOT
BRANCH   1   2
ATOM      2  O   UNL     1      -4.318  -0.985  -2.781  1.00  0.00    -0.461 OA
BRANCH   2   3
ATOM      3  C   UNL     1      -4.729  -1.028  -4.082  1.00  0.00     0.310 C 
ATOM      4  O   UNL     1      -5.777  -1.500  -4.500  1.00  0.00    -0.252 OA
BRANCH   3   5
ATOM      5  C   UNL     1      -3.733  -0.414  -4.997  1.00  0.00     0.113 C 
ATOM      6  C   UNL     1      -3.336   1.009  -4.761  1.00  0.00     0.035 C 
ATOM      7  C   UNL     1      -4.158   0.647  -5.963  1.00  0.00    -0.014 C 
ATOM      8  C   UNL     1      -3.497   0.732  -7.297  1.00  0.00     0.012 C 
ATOM      9  C   UNL     1      -5.609   0.991  -6.000  1.00  0.00     0.012 C 
BRANCH   6  10
ATOM     10  C   UNL     1      -1.932   1.366  -4.908  1.00  0.00     0.011 C 
ATOM     11  Cl  UNL     1      -1.099  -0.135  -2.831  1.00  0.00    -0.071 Cl
ATOM     12  C   UNL     1      -0.899   0.951  -4.159  1.00  0.00     0.103 C 
ATOM     13  Cl  UNL     1       0.705   1.500  -4.500  1.00  0.00    -0.071 Cl
ENDBRANCH   6  10
ENDBRANCH   3   5
ENDBRANCH   2   3
ENDBRANCH   1   2
BRANCH   1  14
ATOM     14  C   UNL     1      -5.129   1.082  -1.927  1.00  0.00    -0.007 A 
ATOM     15  C   UNL     1      -4.146   1.744  -1.192  1.00  0.00     0.054 A 
ATOM     16  C   UNL     1      -6.012   1.809  -2.725  1.00  0.00     0.007 A 
ATOM     17  C   UNL     1      -4.048   3.134  -1.254  1.00  0.00     0.127 A 
ATOM     18  C   UNL     1      -5.914   3.199  -2.786  1.00  0.00     0.004 A 
ATOM     19  C   UNL     1      -4.931   3.861  -2.050  1.00  0.00     0.047 A 
BRANCH  17  20
ATOM     20  O   UNL     1      -3.089   3.781  -0.536  1.00  0.00    -0.457 OA
BRANCH  20  21
ATOM     21  C   UNL     1      -2.161   3.009   0.143  1.00  0.00     0.127 A 
ATOM     22  C   UNL     1      -2.414   2.652   1.456  1.00  0.00     0.047 A 
ATOM     23  C   UNL     1      -1.007   2.615  -0.508  1.00  0.00     0.047 A 
ATOM     24  C   UNL     1      -1.480   1.875   2.139  1.00  0.00     0.004 A 
ATOM     25  C   UNL     1      -0.073   1.836   0.177  1.00  0.00     0.004 A 
ATOM     26  C   UNL     1      -0.310   1.466   1.500  1.00  0.00     0.000 A 
ENDBRANCH  20  21
ENDBRANCH  17  20
ENDBRANCH   1  14
TORSDOF 7
ENDMDL
MODEL 7
REMARK VINA RESULT:    -6.748      3.326      6.642
REMARK INTER + INTRA:         -11.490
REMARK INTER:                  -8.836
REMARK INTRA:                  -2.653
REMARK CONF_INDEPENDENT:        2.088
REMARK UNBOUND:                -2.653
REMARK SMILES CC1(C)[C@H](C=C(Cl)Cl)[C@H]1C(=O)OCc1cccc(Oc2ccccc2)c1
REMARK SMILES IDX 13 1 12 2 10 3 11 4 9 5 4 6 2 7 1 8 3 9 5 10 7 11 6 12 8 13
REMARK SMILES IDX 14 14 26 15 15 16 18 17 16 18 17 19 19 20 20 21 21 22 25 23
REMARK SMILES IDX 22 24 24 25 23 26
REMARK H PARENT
REMARK Flexibility Score: inf
ROOT
ATOM      1  C   UNL     1       0.894   5.582  -2.526  1.00  0.00     0.268 C 
ENDROOT
BRANCH   1   2
ATOM      2  O   UNL     1       0.495   5.163  -1.226  1.00  0.00    -0.461 OA
BRANCH   2   3
ATOM      3  C   UNL     1      -0.791   4.721  -1.114  1.00  0.00     0.310 C 
ATOM      4  O   UNL     1      -1.804   5.342  -1.407  1.00  0.00    -0.252 OA
BRANCH   3   5
ATOM      5  C   UNL     1      -0.855   3.340  -0.573  1.00  0.00     0.113 C 
ATOM      6  C   UNL     1      -1.949   2.440  -1.055  1.00  0.00     0.035 C 
ATOM      7  C   UNL     1      -1.961   2.950   0.356  1.00  0.00    -0.014 C 
ATOM      8  C   UNL     1      -1.693   1.965   1.444  1.00  0.00     0.012 C 
ATOM      9  C   UNL     1      -2.925   4.017   0.751  1.00  0.00     0.012 C 
BRANCH   6  10
ATOM     10  C   UNL     1      -1.624   1.048  -1.333  1.00  0.00     0.011 C 
ATOM     11  Cl  UNL     1      -0.384   1.569  -3.668  1.00  0.00    -0.071 Cl
ATOM     12  C   UNL     1      -0.970   0.557  -2.398  1.00  0.00     0.103 C 
ATOM     13  Cl  UNL     1      -0.686  -1.142  -2.541  1.00  0.00    -0.071 Cl
ENDBRANCH   6  10
ENDBRANCH   3   5
ENDBRANCH   2   3
ENDBRANCH   1   2
BRANCH   1  14
ATOM     14  C   UNL     1       1.759   4.534  -3.141  1.00  0.00    -0.007 A 
ATOM     15  C   UNL     1       2.259   3.494  -2.356  1.00  0.00     0.054 A 
ATOM     16  C   UNL     1       2.067   4.594  -4.500  1.00  0.00     0.007 A 
ATOM     17  C   UNL     1       3.068   2.515  -2.932  1.00  0.00     0.127 A 
ATOM     18  C   UNL     1       2.876   3.614  -5.075  1.00  0.00     0.004 A 
ATOM     19  C   UNL     1       3.377   2.575  -4.290  1.00  0.00     0.047 A 
BRANCH  17  20
ATOM     20  O   UNL     1       3.557   1.500  -2.167  1.00  0.00    -0.457 OA
BRANCH  20  21
ATOM     21  C   UNL     1       3.242   1.500  -0.819  1.00  0.00     0.127 A 
ATOM     22  C   UNL     1       1.972   1.117  -0.424  1.00  0.00     0.047 A 
ATOM     23  C   UNL     1       4.204   1.883   0.097  1.00  0.00     0.047 A 
ATOM     24  C   UNL     1       1.656   1.118   0.934  1.00  0.00     0.004 A 
ATOM     25  C   UNL     1       3.886   1.883   1.456  1.00  0.00     0.004 A 
ATOM     26  C   UNL     1       2.612   1.499   1.874  1.00  0.00     0.000 A 
ENDBRANCH  20  21
ENDBRANCH  17  20
ENDBRANCH   1  14
TORSDOF 7
ENDMDL
MODEL 8
REMARK VINA RESULT:    -6.701      2.969      6.192
REMARK INTER + INTRA:         -11.644
REMARK INTER:                  -8.789
REMARK INTRA:                  -2.855
REMARK CONF_INDEPENDENT:        2.088
REMARK UNBOUND:                -2.855
REMARK SMILES CC1(C)[C@H](C=C(Cl)Cl)[C@H]1C(=O)OCc1cccc(Oc2ccccc2)c1
REMARK SMILES IDX 13 1 12 2 10 3 11 4 9 5 4 6 2 7 1 8 3 9 5 10 7 11 6 12 8 13
REMARK SMILES IDX 14 14 26 15 15 16 18 17 16 18 17 19 19 20 20 21 21 22 25 23
REMARK SMILES IDX 22 24 24 25 23 26
REMARK H PARENT
REMARK Flexibility Score: inf
ROOT
ATOM      1  C   UNL     1       0.400   0.778   1.123  1.00  0.00     0.268 C 
ENDROOT
BRANCH   1   2
ATOM      2  O   UNL     1      -0.302   1.992   1.360  1.00  0.00    -0.461 OA
BRANCH   2   3
ATOM      3  C   UNL     1      -1.651   1.874   1.531  1.00  0.00     0.310 C 
ATOM      4  O   UNL     1      -2.240   1.715   2.591  1.00  0.00    -0.252 OA
BRANCH   3   5
ATOM      5  C   UNL     1      -2.381   1.963   0.241  1.00  0.00     0.113 C 
ATOM      6  C   UNL     1      -1.585   1.985  -1.025  1.00  0.00     0.035 C 
ATOM      7  C   UNL     1      -2.314   3.216  -0.572  1.00  0.00    -0.014 C 
ATOM      8  C   UNL     1      -3.503   3.640  -1.367  1.00  0.00     0.012 C 
ATOM      9  C   UNL     1      -1.551   4.361   0.003  1.00  0.00     0.012 C 
BRANCH   6  10
ATOM     10  C   UNL     1      -2.072   1.214  -2.159  1.00  0.00     0.011 C 
ATOM     11  Cl  UNL     1      -0.379  -0.846  -1.777  1.00  0.00    -0.071 Cl
ATOM     12  C   UNL     1      -1.646   0.012  -2.577  1.00  0.00     0.103 C 
ATOM     13  Cl  UNL     1      -2.362  -0.738  -3.961  1.00  0.00    -0.071 Cl
ENDBRANCH   6  10
ENDBRANCH   3   5
ENDBRANCH   2   3
ENDBRANCH   1   2
BRANCH   1  14
ATOM     14  C   UNL     1       1.740   1.084   0.546  1.00  0.00    -0.007 A 
ATOM     15  C   UNL     1       1.842   1.589  -0.751  1.00  0.00     0.054 A 
ATOM     16  C   UNL     1       2.892   0.868   1.303  1.00  0.00     0.007 A 
ATOM     17  C   UNL     1       3.096   1.876  -1.290  1.00  0.00     0.127 A 
ATOM     18  C   UNL     1       4.145   1.154   0.764  1.00  0.00     0.004 A 
ATOM     19  C   UNL     1       4.247   1.659  -0.533  1.00  0.00     0.047 A 
BRANCH  17  20
ATOM     20  O   UNL     1       3.197   2.369  -2.555  1.00  0.00    -0.457 OA
BRANCH  20  21
ATOM     21  C   UNL     1       2.030   2.767  -3.185  1.00  0.00     0.127 A 
ATOM     22  C   UNL     1       1.458   1.935  -4.131  1.00  0.00     0.047 A 
ATOM     23  C   UNL     1       1.468   3.986  -2.855  1.00  0.00     0.047 A 
ATOM     24  C   UNL     1       0.284   2.336  -4.766  1.00  0.00     0.004 A 
ATOM     25  C   UNL     1       0.292   4.386  -3.491  1.00  0.00     0.004 A 
ATOM     26  C   UNL     1      -0.300   3.561  -4.446  1.00  0.00     0.000 A 
ENDBRANCH  20  21
ENDBRANCH  17  20
ENDBRANCH   1  14
TORSDOF 7
ENDMDL
MODEL 9
REMARK VINA RESULT:    -6.408      3.630      5.123
REMARK INTER + INTRA:         -11.524
REMARK INTER:                  -8.497
REMARK INTRA:                  -3.027
REMARK CONF_INDEPENDENT:        2.088
REMARK UNBOUND:                -3.027
REMARK SMILES CC1(C)[C@H](C=C(Cl)Cl)[C@H]1C(=O)OCc1cccc(Oc2ccccc2)c1
REMARK SMILES IDX 13 1 12 2 10 3 11 4 9 5 4 6 2 7 1 8 3 9 5 10 7 11 6 12 8 13
REMARK SMILES IDX 14 14 26 15 15 16 18 17 16 18 17 19 19 20 20 21 21 22 25 23
REMARK SMILES IDX 22 24 24 25 23 26
REMARK H PARENT
REMARK Flexibility Score: inf
ROOT
ATOM      1  C   UNL     1       1.703   4.553  -2.560  1.00  0.00     0.268 C 
ENDROOT
BRANCH   1   2
ATOM      2  O   UNL     1       1.520   3.844  -1.342  1.00  0.00    -0.461 OA
BRANCH   2   3
ATOM      3  C   UNL     1       2.015   2.572  -1.315  1.00  0.00     0.310 C 
ATOM      4  O   UNL     1       3.190   2.245  -1.403  1.00  0.00    -0.252 OA
BRANCH   3   5
ATOM      5  C   UNL     1       0.937   1.563  -1.158  1.00  0.00     0.113 C 
ATOM      6  C   UNL     1      -0.139   1.825  -0.151  1.00  0.00     0.035 C 
ATOM      7  C   UNL     1       0.863   0.733   0.085  1.00  0.00    -0.014 C 
ATOM      8  C   UNL     1       0.377  -0.675  -0.000  1.00  0.00     0.012 C 
ATOM      9  C   UNL     1       1.944   0.923   1.095  1.00  0.00     0.012 C 
BRANCH   6  10
ATOM     10  C   UNL     1      -1.512   1.500  -0.510  1.00  0.00     0.011 C 
ATOM     11  Cl  UNL     1      -2.102   3.974  -1.400  1.00  0.00    -0.071 Cl
ATOM     12  C   UNL     1      -2.434   2.318  -1.042  1.00  0.00     0.103 C 
ATOM     13  Cl  UNL     1      -4.022   1.732  -1.395  1.00  0.00    -0.071 Cl
ENDBRANCH   6  10
ENDBRANCH   3   5
ENDBRANCH   2   3
ENDBRANCH   1   2
BRANCH   1  14
ATOM     14  C   UNL     1       1.546   3.616  -3.709  1.00  0.00    -0.007 A 
ATOM     15  C   UNL     1       0.296   3.066  -3.994  1.00  0.00     0.054 A 
ATOM     16  C   UNL     1       2.648   3.290  -4.499  1.00  0.00     0.007 A 
ATOM     17  C   UNL     1       0.149   2.190  -5.069  1.00  0.00     0.127 A 
ATOM     18  C   UNL     1       2.501   2.413  -5.573  1.00  0.00     0.004 A 
ATOM     19  C   UNL     1       1.251   1.863  -5.858  1.00  0.00     0.047 A 
BRANCH  17  20
ATOM     20  O   UNL     1      -1.071   1.653  -5.348  1.00  0.00    -0.457 OA
BRANCH  20  21
ATOM     21  C   UNL     1      -1.506   0.600  -4.563  1.00  0.00     0.127 A 
ATOM     22  C   UNL     1      -2.841   0.236  -4.603  1.00  0.00     0.047 A 
ATOM     23  C   UNL     1      -0.597  -0.062  -3.759  1.00  0.00     0.047 A 
ATOM     24  C   UNL     1      -3.279  -0.825  -3.812  1.00  0.00     0.004 A 
ATOM     25  C   UNL     1      -1.036  -1.125  -2.968  1.00  0.00     0.004 A 
ATOM     26  C   UNL     1      -2.378  -1.506  -2.996  1.00  0.00     0.000 A 
ENDBRANCH  20  21
ENDBRANCH  17  20
ENDBRANCH   1  14
TORSDOF 7
ENDMDL
